@<TRIPOS>MOLECULE
****
   52    52     0     0     0
SMALL
NO_CHARGES

@<TRIPOS>ATOM
      1 H1         32.3580   33.3910  -20.0420 H         1 <0>         0.0000
      2 H2         33.4590   33.7930  -21.1790 H         1 <0>         0.0000
      3 H3         30.8330   34.9360  -20.8430 H         1 <0>         0.0000
      4 H4         32.7750   35.9530  -22.7100 H         1 <0>         0.0000
      5 H5         32.0540   37.2160  -20.2130 H         1 <0>         0.0000
      6 H6         34.5310   36.0140  -21.0570 H         1 <0>         0.0000
      7 H7         29.9870   31.0960  -10.6510 H         1 <0>         0.0000
      8 H8         30.8800   32.4630  -10.6630 H         1 <0>         0.0000
      9 H9         29.9480   32.0860  -11.9490 H         1 <0>         0.0000
     10 H10        35.5280   36.7320  -19.0310 H         1 <0>         0.0000
     11 H11        35.0470   38.0340  -19.8920 H         1 <0>         0.0000
     12 H12        31.3220   30.2080  -12.3950 H         1 <0>         0.0000
     13 H13        32.2540   30.5850  -11.1090 H         1 <0>         0.0000
     14 H14        33.0500   32.4830  -12.1160 H         1 <0>         0.0000
     15 H15        31.8760   32.4590  -13.2500 H         1 <0>         0.0000
     16 H16        32.8570   30.5680  -14.2620 H         1 <0>         0.0000
     17 H17        33.9960   30.5110  -13.0930 H         1 <0>         0.0000
     18 H18        35.2680   31.7270  -14.3890 H         1 <0>         0.0000
     19 H19        34.2360   32.9680  -14.1430 H         1 <0>         0.0000
     20 H20        34.3680   31.2150  -16.4030 H         1 <0>         0.0000
     21 H21        32.9060   31.8260  -16.0070 H         1 <0>         0.0000
     22 H22        33.9660   34.0400  -16.0040 H         1 <0>         0.0000
     23 H23        35.2630   33.3310  -16.6990 H         1 <0>         0.0000
     24 H24        33.7360   32.5390  -18.4580 H         1 <0>         0.0000
     25 H25        32.6210   33.5540  -17.8320 H         1 <0>         0.0000
     26 H26        34.4950   35.2530  -17.9590 H         1 <0>         0.0000
     27 H27        35.1090   34.2340  -19.0770 H         1 <0>         0.0000
     28 H28        31.9290   34.1430  -23.2740 H         1 <0>         0.0000
     29 H29        31.2350   37.6430  -22.9420 H         1 <0>         0.0000
     30 H30        32.3480   38.9490  -21.4610 H         1 <0>         0.0000
     31 H31        33.2830   37.0170  -18.0000 H         1 <0>         0.0000
     32 C1         32.7530   34.1460  -20.5650 C.3       1 <0>         0.0000
     33 C2         31.6490   34.7980  -21.4040 C.3       1 <0>         0.0000
     34 C3         32.1050   36.1250  -21.9870 C.3       1 <0>         0.0000
     35 C4         32.7290   37.0450  -20.9310 C.3       1 <0>         0.0000
     36 C5         33.9290   36.3150  -20.3170 C.3       1 <0>         0.0000
     37 C6         30.5260   31.7140  -11.2230 C.3       1 <0>         0.0000
     38 C7         34.7360   37.2390  -19.3710 C.3       1 <0>         0.0000
     39 C8         31.6760   30.9570  -11.8350 C.3       1 <0>         0.0000
     40 C9         32.4960   31.8950  -12.7040 C.3       1 <0>         0.0000
     41 C10        33.4190   31.1160  -13.6420 C.3       1 <0>         0.0000
     42 C11        34.3180   32.0280  -14.4740 C.3       1 <0>         0.0000
     43 C12        33.8940   31.9660  -15.9430 C.3       1 <0>         0.0000
     44 C13        34.2710   33.2850  -16.5850 C.3       1 <0>         0.0000
     45 C14        33.6000   33.3820  -17.9380 C.3       1 <0>         0.0000
     46 C15        34.2710   34.5480  -18.6320 C.3       1 <0>         0.0000
     47 N1         33.3700   35.1000  -19.6300 N.4       1 <0>         0.0000
     48 O1         31.3460   33.9190  -22.4930 O.3       1 <0>         0.0000
     49 O2         30.9650   36.7640  -22.5490 O.3       1 <0>         0.0000
     50 O3         33.1140   38.3080  -21.5170 O.3       1 <0>         0.0000
     51 O4         33.9700   37.7030  -18.2410 O.3       1 <0>         0.0000
     52 H32        32.6006   35.4565  -19.1000 H         1 <0>         0.0000
@<TRIPOS>BOND
     1    1   32 1
     2    2   32 1
     3    3   33 1
     4    4   34 1
     5    5   35 1
     6    6   36 1
     7    7   37 1
     8    8   37 1
     9    9   37 1
    10   10   38 1
    11   11   38 1
    12   12   39 1
    13   13   39 1
    14   14   40 1
    15   15   40 1
    16   16   41 1
    17   17   41 1
    18   18   42 1
    19   19   42 1
    20   20   43 1
    21   21   43 1
    22   22   44 1
    23   23   44 1
    24   24   45 1
    25   25   45 1
    26   26   46 1
    27   27   46 1
    28   28   48 1
    29   29   49 1
    30   30   50 1
    31   31   51 1
    32   32   33 1
    33   32   47 1
    34   33   34 1
    35   33   48 1
    36   34   35 1
    37   34   49 1
    38   35   36 1
    39   35   50 1
    40   36   38 1
    41   36   47 1
    42   37   39 1
    43   38   51 1
    44   39   40 1
    45   40   41 1
    46   41   42 1
    47   42   43 1
    48   43   44 1
    49   44   45 1
    50   45   46 1
    51   46   47 1
    52   47   52 1
