@<TRIPOS>MOLECULE
****
   32    32     0     0     0
SMALL
NO_CHARGES

@<TRIPOS>ATOM
      1 H1          9.0200   -9.5510   38.4580 H         1 <0>         0.0000
      2 H2          9.0870  -10.1290   39.9840 H         1 <0>         0.0000
      3 H3         10.0670   -9.2420   41.5270 H         1 <0>         0.0000
      4 H4         10.8110   -7.7900   41.4530 H         1 <0>         0.0000
      5 H5         11.2090  -10.5380   38.0440 H         1 <0>         0.0000
      6 H6         12.1240   -9.6800   42.2800 H         1 <0>         0.0000
      7 H7         10.7080  -11.6360   40.6890 H         1 <0>         0.0000
      8 H8         13.0720  -10.3260   39.7110 H         1 <0>         0.0000
      9 H9          9.8800   -6.6120   40.0160 H         1 <0>         0.0000
     10 H10         8.5760   -7.5870   39.8920 H         1 <0>         0.0000
     11 H11         9.5550   -7.7100   37.4440 H         1 <0>         0.0000
     12 H12         8.3320   -6.7190   37.8790 H         1 <0>         0.0000
     13 H13         9.5150  -12.4810   39.0920 H         1 <0>         0.0000
     14 H14        13.4710   -8.3730   40.2530 H         1 <0>         0.0000
     15 H15        11.4780  -13.4690   40.1050 H         1 <0>         0.0000
     16 H16        13.2010  -12.4350   41.0300 H         1 <0>         0.0000
     17 H17        11.0610   -6.0120   37.8040 H         1 <0>         0.0000
     18 C1          9.6280   -9.7830   39.2170 C.3       1 <0>         0.0000
     19 C2         10.7700   -8.7080   41.0580 C.3       1 <0>         0.0000
     20 C3         10.5970  -10.8560   38.7680 C.3       1 <0>         0.0000
     21 C4         12.1300   -9.3910   41.3230 C.3       1 <0>         0.0000
     22 C5         11.3570  -11.4830   39.9440 C.3       1 <0>         0.0000
     23 C6         12.5210  -10.6330   40.4870 C.3       1 <0>         0.0000
     24 C7          9.4740   -7.3710   39.5080 C.3       1 <0>         0.0000
     25 C8          9.2950   -6.9430   38.0300 C.3       1 <0>         0.0000
     26 N1         10.3560   -8.5680   39.6450 N.4       1 <0>         0.0000
     27 O1          9.7280  -11.8710   38.3290 O.3       1 <0>         0.0000
     28 O2         13.1520   -8.4060   41.2000 O.3       1 <0>         0.0000
     29 O3         11.8580  -12.7500   39.5230 O.3       1 <0>         0.0000
     30 O4         13.3330  -11.4830   41.3050 O.3       1 <0>         0.0000
     31 O5         10.0930   -5.8000   37.6670 O.3       1 <0>         0.0000
     32 H18        11.1664   -8.4471   39.0717 H         1 <0>         0.0000
@<TRIPOS>BOND
     1    1   18 1
     2    2   18 1
     3    3   19 1
     4    4   19 1
     5    5   20 1
     6    6   21 1
     7    7   22 1
     8    8   23 1
     9    9   24 1
    10   10   24 1
    11   11   25 1
    12   12   25 1
    13   13   27 1
    14   14   28 1
    15   15   29 1
    16   16   30 1
    17   17   31 1
    18   18   20 1
    19   18   26 1
    20   19   21 1
    21   19   26 1
    22   20   22 1
    23   20   27 1
    24   21   23 1
    25   21   28 1
    26   22   23 1
    27   22   29 1
    28   23   30 1
    29   24   25 1
    30   24   26 1
    31   25   31 1
    32   26   32 1
