@<TRIPOS>MOLECULE
****
   48    51     0     0     0
SMALL
NO_CHARGES

@<TRIPOS>ATOM
      1 H1          3.7470    1.1590   -2.9130 H         1 <0>         0.0000
      2 H2          7.1060   -0.5240   -8.2850 H         1 <0>         0.0000
      3 H3          1.5850    0.3300   -2.2770 H         1 <0>         0.0000
      4 H4          9.2670    0.2140   -9.0120 H         1 <0>         0.0000
      5 H5          2.1410   -3.0110   -4.6940 H         1 <0>         0.0000
      6 H6         10.0830    1.6550   -5.1890 H         1 <0>         0.0000
      7 H7          5.2680   -3.0250   -5.0490 H         1 <0>         0.0000
      8 H8          4.0680   -3.1100   -6.1530 H         1 <0>         0.0000
      9 H9          7.9870    0.2910   -3.4040 H         1 <0>         0.0000
     10 H10         8.1730    1.8940   -3.6490 H         1 <0>         0.0000
     11 H11         5.8920    1.2490   -2.9800 H         1 <0>         0.0000
     12 H12         6.1640   -2.1320   -6.9730 H         1 <0>         0.0000
     13 H13         4.1640    3.8400   -4.7860 H         1 <0>         0.0000
     14 H14         3.7820    2.2520   -4.7610 H         1 <0>         0.0000
     15 H15         4.1790    3.0190   -3.3750 H         1 <0>         0.0000
     16 H16         3.3770   -1.8060   -9.2070 H         1 <0>         0.0000
     17 H17         4.7110   -2.6970   -8.9040 H         1 <0>         0.0000
     18 H18         3.4270   -2.7830   -7.8990 H         1 <0>         0.0000
     19 H19         6.4040    3.3160   -4.1760 H         1 <0>         0.0000
     20 H20         6.0080    2.5500   -5.5620 H         1 <0>         0.0000
     21 H21         3.7860   -0.5240   -7.2480 H         1 <0>         0.0000
     22 H22         5.0700   -0.4380   -8.2530 H         1 <0>         0.0000
     23 H23         0.1400   -2.7120   -3.4690 H         1 <0>         0.0000
     24 H24        11.3450    1.1910   -8.5080 H         1 <0>         0.0000
     25 C1          3.4130    0.2930   -3.2850 C.ar      1 <0>         0.0000
     26 C2          7.7280   -0.0790   -7.6410 C.ar      1 <0>         0.0000
     27 C3          2.1580   -0.1860   -2.9140 C.ar      1 <0>         0.0000
     28 C4          8.9770    0.3520   -8.0650 C.ar      1 <0>         0.0000
     29 C5          2.4840   -2.1450   -4.3300 C.ar      1 <0>         0.0000
     30 C6          9.4540    1.2060   -5.8240 C.ar      1 <0>         0.0000
     31 C7          4.2170   -0.4460   -4.1890 C.ar      1 <0>         0.0000
     32 C8          7.3370    0.1140   -6.2900 C.ar      1 <0>         0.0000
     33 C9          3.7390   -1.6670   -4.6980 C.ar      1 <0>         0.0000
     34 C10         8.1930    0.7930   -5.4040 C.ar      1 <0>         0.0000
     35 C11         1.7160   -1.3920   -3.4430 C.ar      1 <0>         0.0000
     36 C12         9.8200    0.9790   -7.1530 C.ar      1 <0>         0.0000
     37 C13         5.5070    0.0830   -4.6820 C.2       1 <0>         0.0000
     38 C14         6.0850   -0.4220   -5.7910 C.2       1 <0>         0.0000
     39 C15         4.6350   -2.4910   -5.6090 C.3       1 <0>         0.0000
     40 C16         7.7310    1.0630   -3.9850 C.3       1 <0>         0.0000
     41 C17         6.1920    1.2490   -3.9340 C.3       1 <0>         0.0000
     42 C18         5.4390   -1.5870   -6.5520 C.3       1 <0>         0.0000
     43 C19         4.3620    2.9590   -4.3560 C.3       1 <0>         0.0000
     44 C20         3.9640   -2.1790   -8.4880 C.3       1 <0>         0.0000
     45 C21         5.8320    2.6020   -4.5790 C.3       1 <0>         0.0000
     46 C22         4.5360   -1.0410   -7.6600 C.3       1 <0>         0.0000
     47 O1          0.4760   -1.8460   -3.0990 O.3       1 <0>         0.0000
     48 O2         11.0570    1.3620   -7.5660 O.3       1 <0>         0.0000
@<TRIPOS>BOND
     1    1   25 1
     2    2   26 1
     3    3   27 1
     4    4   28 1
     5    5   29 1
     6    6   30 1
     7    7   39 1
     8    8   39 1
     9    9   40 1
    10   10   40 1
    11   11   41 1
    12   12   42 1
    13   13   43 1
    14   14   43 1
    15   15   43 1
    16   16   44 1
    17   17   44 1
    18   18   44 1
    19   19   45 1
    20   20   45 1
    21   21   46 1
    22   22   46 1
    23   23   47 1
    24   24   48 1
    25   25   27 ar
    26   25   31 ar
    27   26   28 ar
    28   26   32 ar
    29   27   35 ar
    30   28   36 ar
    31   29   33 ar
    32   29   35 ar
    33   30   34 ar
    34   30   36 ar
    35   31   33 ar
    36   31   37 1
    37   32   34 ar
    38   32   38 1
    39   33   39 1
    40   34   40 1
    41   35   47 1
    42   36   48 1
    43   37   38 2
    44   37   41 1
    45   38   42 1
    46   39   42 1
    47   40   41 1
    48   41   45 1
    49   42   46 1
    50   43   45 1
    51   44   46 1
