@<TRIPOS>MOLECULE
****
   43    46     0     0     0
SMALL
NO_CHARGES

@<TRIPOS>ATOM
      1 H1          7.5220    4.7070   -4.3900 H         1 <0>         0.0000
      2 H2          5.5520    3.0800   -9.0830 H         1 <0>         0.0000
      3 H3          5.2470    5.0040   -3.7110 H         1 <0>         0.0000
      4 H4          7.8120    2.7940   -9.7970 H         1 <0>         0.0000
      5 H5          9.1390    4.0690   -6.0830 H         1 <0>         0.0000
      6 H6          3.7330    4.0740   -8.6480 H         1 <0>         0.0000
      7 H7          3.5770    2.5910   -7.9830 H         1 <0>         0.0000
      8 H8          1.4620    3.3520   -7.8100 H         1 <0>         0.0000
      9 H9          1.9360    4.8940   -7.5530 H         1 <0>         0.0000
     10 H10         2.8590    3.5540   -3.2550 H         1 <0>         0.0000
     11 H11         2.9280    5.1740   -3.0570 H         1 <0>         0.0000
     12 H12         0.6820    5.3900   -3.3710 H         1 <0>         0.0000
     13 H13         0.5880    3.7680   -3.2100 H         1 <0>         0.0000
     14 H14         2.7350    5.5450   -5.3320 H         1 <0>         0.0000
     15 H15         1.9360    2.1760   -4.4290 H         1 <0>         0.0000
     16 H16         1.3480    1.7330   -5.8870 H         1 <0>         0.0000
     17 H17         2.9580    1.9150   -5.6760 H         1 <0>         0.0000
     18 H18        -0.4140    2.6230   -5.0800 H         1 <0>         0.0000
     19 H19        -1.3490    3.9610   -5.0150 H         1 <0>         0.0000
     20 H20        -0.7390    3.4590   -6.4440 H         1 <0>         0.0000
     21 H21        10.1370    2.9090   -9.3480 H         1 <0>         0.0000
     22 H22         0.0260    6.2750   -5.0960 H         1 <0>         0.0000
     23 C1          6.7790    4.4960   -5.0250 C.ar      1 <0>         0.0000
     24 C2          6.3010    3.2900   -8.4550 C.ar      1 <0>         0.0000
     25 C3          5.4530    4.6610   -4.6280 C.ar      1 <0>         0.0000
     26 C4          7.6190    3.1200   -8.8720 C.ar      1 <0>         0.0000
     27 C5          8.3900    3.8640   -6.7130 C.ar      1 <0>         0.0000
     28 C6          7.0660    4.0380   -6.3040 C.ar      1 <0>         0.0000
     29 C7          6.0170    3.7490   -7.1750 C.ar      1 <0>         0.0000
     30 C8          4.4140    4.3510   -5.5000 C.ar      1 <0>         0.0000
     31 C9          4.6750    3.9070   -6.7960 C.ar      1 <0>         0.0000
     32 C10         8.6670    3.4030   -8.0040 C.ar      1 <0>         0.0000
     33 C11         3.5500    3.5740   -7.8020 C.3       1 <0>         0.0000
     34 C12         2.1170    3.9360   -7.3300 C.3       1 <0>         0.0000
     35 C13         2.5580    4.4350   -3.6200 C.3       1 <0>         0.0000
     36 C14         1.0090    4.5140   -3.7260 C.3       1 <0>         0.0000
     37 C15         2.9430    4.5980   -5.0880 C.3       1 <0>         0.0000
     38 C16         1.9420    3.7380   -5.8200 C.3       1 <0>         0.0000
     39 C17         0.6680    4.3840   -5.2360 C.3       1 <0>         0.0000
     40 C18         2.0560    2.2620   -5.4180 C.3       1 <0>         0.0000
     41 C19        -0.5630    3.5350   -5.4630 C.3       1 <0>         0.0000
     42 O1          9.9510    3.2350   -8.4210 O.3       1 <0>         0.0000
     43 O2          0.4330    5.6830   -5.7920 O.3       1 <0>         0.0000
@<TRIPOS>BOND
     1    1   23 1
     2    2   24 1
     3    3   25 1
     4    4   26 1
     5    5   27 1
     6    6   33 1
     7    7   33 1
     8    8   34 1
     9    9   34 1
    10   10   35 1
    11   11   35 1
    12   12   36 1
    13   13   36 1
    14   14   37 1
    15   15   40 1
    16   16   40 1
    17   17   40 1
    18   18   41 1
    19   19   41 1
    20   20   41 1
    21   21   42 1
    22   22   43 1
    23   23   25 ar
    24   23   28 ar
    25   24   26 ar
    26   24   29 ar
    27   25   30 ar
    28   26   32 ar
    29   27   28 ar
    30   27   32 ar
    31   28   29 ar
    32   29   31 ar
    33   30   31 ar
    34   30   37 1
    35   31   33 1
    36   32   42 1
    37   33   34 1
    38   34   38 1
    39   35   36 1
    40   35   37 1
    41   36   39 1
    42   37   38 1
    43   38   39 1
    44   38   40 1
    45   39   41 1
    46   39   43 1
