@<TRIPOS>MOLECULE
****
   61    65     0     0     0
SMALL
NO_CHARGES

@<TRIPOS>ATOM
      1 H1        -39.1780    9.1310   18.2780 H         1 <0>         0.0000
      2 H2        -37.5930   10.8330   18.8930 H         1 <0>         0.0000
      3 H3        -39.2950    7.0770   19.5080 H         1 <0>         0.0000
      4 H4        -32.9100    2.9690   17.5310 H         1 <0>         0.0000
      5 H5        -36.0640   10.4340   20.6900 H         1 <0>         0.0000
      6 H6        -30.6100    2.7110   16.8910 H         1 <0>         0.0000
      7 H7        -29.4210    3.1980   20.8310 H         1 <0>         0.0000
      8 H8        -37.6010    6.3320   22.5260 H         1 <0>         0.0000
      9 H9        -38.2570    5.0640   19.9720 H         1 <0>         0.0000
     10 H10       -31.6530    2.6830   22.4980 H         1 <0>         0.0000
     11 H11       -31.0450    4.1940   22.3890 H         1 <0>         0.0000
     12 H12       -33.1700    5.0830   21.9250 H         1 <0>         0.0000
     13 H13       -33.3370    4.1370   23.2450 H         1 <0>         0.0000
     14 H14       -34.8800    2.8300   18.1630 H         1 <0>         0.0000
     15 H15       -34.9140    1.6700   19.3120 H         1 <0>         0.0000
     16 H16       -35.9400    2.8880   23.7350 H         1 <0>         0.0000
     17 H17       -35.7620    4.5100   23.8080 H         1 <0>         0.0000
     18 H18       -37.9510    4.8350   23.4180 H         1 <0>         0.0000
     19 H19       -38.1600    3.2270   23.6180 H         1 <0>         0.0000
     20 H20       -37.1250    2.4900   19.0530 H         1 <0>         0.0000
     21 H21       -36.6140    4.0280   19.2450 H         1 <0>         0.0000
     22 H22       -34.1660    4.4150   19.7920 H         1 <0>         0.0000
     23 H23       -34.0830    2.3170   21.7670 H         1 <0>         0.0000
     24 H24       -35.6930    4.7100   21.5020 H         1 <0>         0.0000
     25 H25       -36.9350    1.3830   22.4230 H         1 <0>         0.0000
     26 H26       -37.5030    1.0190   20.9360 H         1 <0>         0.0000
     27 H27       -35.8930    1.0500   21.2100 H         1 <0>         0.0000
     28 H28       -28.2860    2.6140   17.5280 H         1 <0>         0.0000
     29 H29       -39.9730    3.6180   21.7600 H         1 <0>         0.0000
     30 C1        -38.5550    8.9770   19.0450 C.ar      1 <0>         0.0000
     31 C2        -37.6220    9.9690   19.3950 C.ar      1 <0>         0.0000
     32 C3        -38.6210    7.7700   19.7630 C.ar      1 <0>         0.0000
     33 C4        -32.1850    3.0220   18.2180 C.ar      1 <0>         0.0000
     34 C5        -36.7400    9.7390   20.4450 C.ar      1 <0>         0.0000
     35 C6        -30.8480    2.8710   17.8490 C.ar      1 <0>         0.0000
     36 C7        -30.1470    3.1670   20.1440 C.ar      1 <0>         0.0000
     37 C8        -37.7500    7.5330   20.8310 C.ar      1 <0>         0.0000
     38 C9        -32.4930    3.2460   19.5510 C.ar      1 <0>         0.0000
     39 C10       -31.4690    3.3480   20.5160 C.ar      1 <0>         0.0000
     40 C11       -36.7980    8.5310   21.1620 C.ar      1 <0>         0.0000
     41 C12       -29.8390    2.9430   18.8160 C.ar      1 <0>         0.0000
     42 C13       -37.7730    6.3080   21.5410 C.2       1 <0>         0.0000
     43 C14       -38.0230    5.0580   20.9440 C.2       1 <0>         0.0000
     44 C15       -31.7280    3.5610   22.0260 C.3       1 <0>         0.0000
     45 C16       -33.1350    4.1440   22.2660 C.3       1 <0>         0.0000
     46 C17       -35.0260    2.6480   19.1350 C.3       1 <0>         0.0000
     47 C18       -36.1520    3.7540   23.2820 C.3       1 <0>         0.0000
     48 C19       -37.6710    3.9290   23.1000 C.3       1 <0>         0.0000
     49 C20       -36.4740    3.0800   19.5290 C.3       1 <0>         0.0000
     50 C21       -33.9710    3.4520   19.9770 C.3       1 <0>         0.0000
     51 C22       -34.1850    3.2790   21.5130 C.3       1 <0>         0.0000
     52 C23       -35.6350    3.7630   21.8190 C.3       1 <0>         0.0000
     53 C24       -37.9770    3.7810   21.5860 C.3       1 <0>         0.0000
     54 C25       -36.7330    2.9750   21.0600 C.3       1 <0>         0.0000
     55 C26       -36.7690    1.4740   21.4410 C.3       1 <0>         0.0000
     56 C27       -35.7960    8.3650   22.3380 C.3       1 <0>         0.0000
     57 O1        -28.5390    2.7850   18.4800 O.3       1 <0>         0.0000
     58 O2        -39.2210    3.0820   21.3760 O.3       1 <0>         0.0000
     59 F1        -34.9920    9.4060   22.3590 F         1 <0>         0.0000
     60 F2        -36.3940    8.3520   23.5370 F         1 <0>         0.0000
     61 F3        -35.0690    7.2540   22.2500 F         1 <0>         0.0000
@<TRIPOS>BOND
     1    1   30 1
     2    2   31 1
     3    3   32 1
     4    4   33 1
     5    5   34 1
     6    6   35 1
     7    7   36 1
     8    8   42 1
     9    9   43 1
    10   10   44 1
    11   11   44 1
    12   12   45 1
    13   13   45 1
    14   14   46 1
    15   15   46 1
    16   16   47 1
    17   17   47 1
    18   18   48 1
    19   19   48 1
    20   20   49 1
    21   21   49 1
    22   22   50 1
    23   23   51 1
    24   24   52 1
    25   25   55 1
    26   26   55 1
    27   27   55 1
    28   28   57 1
    29   29   58 1
    30   30   31 ar
    31   30   32 ar
    32   31   34 ar
    33   32   37 ar
    34   33   35 ar
    35   33   38 ar
    36   34   40 ar
    37   35   41 ar
    38   36   39 ar
    39   36   41 ar
    40   37   40 ar
    41   37   42 1
    42   38   39 ar
    43   38   50 1
    44   39   44 1
    45   40   56 1
    46   41   57 1
    47   42   43 2
    48   43   53 1
    49   44   45 1
    50   45   51 1
    51   46   49 1
    52   46   50 1
    53   47   48 1
    54   47   52 1
    55   48   53 1
    56   49   54 1
    57   50   51 1
    58   51   52 1
    59   52   54 1
    60   53   54 1
    61   53   58 1
    62   54   55 1
    63   56   59 1
    64   56   60 1
    65   56   61 1
