@<TRIPOS>MOLECULE
****
   39    42     0     0     0
SMALL
NO_CHARGES

@<TRIPOS>ATOM
      1 H1          8.7520   49.6770   59.7950 H         1 <0>         0.0000
      2 H2          8.9670   53.7360   60.7570 H         1 <0>         0.0000
      3 H3         11.9290   48.7520   57.7720 H         1 <0>         0.0000
      4 H4          6.4000   49.6890   60.2490 H         1 <0>         0.0000
      5 H5          6.6130   53.7440   61.2200 H         1 <0>         0.0000
      6 H6         14.2170   48.4380   57.1560 H         1 <0>         0.0000
      7 H7         15.3580   51.4480   59.8270 H         1 <0>         0.0000
      8 H8         14.1260   52.6570   62.5190 H         1 <0>         0.0000
      9 H9         14.3010   51.0970   62.0710 H         1 <0>         0.0000
     10 H10        11.2280   50.2290   62.0730 H         1 <0>         0.0000
     11 H11        10.4570   51.3970   62.9150 H         1 <0>         0.0000
     12 H12        13.1990   53.0620   60.4870 H         1 <0>         0.0000
     13 H13        10.7300   52.3540   59.2000 H         1 <0>         0.0000
     14 H14        11.1290   53.0560   61.4550 H         1 <0>         0.0000
     15 H15         4.5480   52.5560   61.3400 H         1 <0>         0.0000
     16 H16        17.0030   50.2560   58.5050 H         1 <0>         0.0000
     17 C1          8.3050   50.5220   60.0900 C.ar      1 <0>         0.0000
     18 C2          8.4330   52.8970   60.6540 C.ar      1 <0>         0.0000
     19 C3         12.6390   49.3120   58.1980 C.ar      1 <0>         0.0000
     20 C4          6.9350   50.5270   60.3570 C.ar      1 <0>         0.0000
     21 C5          7.0620   52.9010   60.9240 C.ar      1 <0>         0.0000
     22 C6         13.9750   49.1260   57.8400 C.ar      1 <0>         0.0000
     23 C7         14.6420   50.8900   59.4060 C.ar      1 <0>         0.0000
     24 C8          9.0630   51.7050   60.2350 C.ar      1 <0>         0.0000
     25 C9         13.2840   51.0830   59.7740 C.ar      1 <0>         0.0000
     26 C10        12.2810   50.2890   59.1620 C.ar      1 <0>         0.0000
     27 C11         6.3100   51.7130   60.7780 C.ar      1 <0>         0.0000
     28 C12        14.9850   49.9060   58.4410 C.ar      1 <0>         0.0000
     29 C13        13.6470   51.8440   62.1880 C.3       1 <0>         0.0000
     30 C14        11.2730   51.1800   62.3790 C.3       1 <0>         0.0000
     31 C15        12.9320   52.1570   60.8180 C.3       1 <0>         0.0000
     32 C16        10.5620   51.6960   59.9340 C.3       1 <0>         0.0000
     33 C17        11.4110   52.1380   61.1760 C.3       1 <0>         0.0000
     34 C18        12.5430   51.4310   63.1950 C.3       1 <0>         0.0000
     35 O1         10.9470   50.3950   59.4550 O.3       1 <0>         0.0000
     36 O2          4.9970   51.7140   61.0400 O.3       1 <0>         0.0000
     37 O3         16.2800   49.7080   58.0850 O.3       1 <0>         0.0000
     38 F1         12.3120   52.4470   64.1220 F         1 <0>         0.0000
     39 F2         12.9280   50.2730   63.8650 F         1 <0>         0.0000
@<TRIPOS>BOND
     1    1   17 1
     2    2   18 1
     3    3   19 1
     4    4   20 1
     5    5   21 1
     6    6   22 1
     7    7   23 1
     8    8   29 1
     9    9   29 1
    10   10   30 1
    11   11   30 1
    12   12   31 1
    13   13   32 1
    14   14   33 1
    15   15   36 1
    16   16   37 1
    17   17   20 ar
    18   17   24 ar
    19   18   21 ar
    20   18   24 ar
    21   19   22 ar
    22   19   26 ar
    23   20   27 ar
    24   21   27 ar
    25   22   28 ar
    26   23   25 ar
    27   23   28 ar
    28   24   32 1
    29   25   26 ar
    30   25   31 1
    31   26   35 1
    32   27   36 1
    33   28   37 1
    34   29   31 1
    35   29   34 1
    36   30   33 1
    37   30   34 1
    38   31   33 1
    39   32   33 1
    40   32   35 1
    41   34   38 1
    42   34   39 1
