@<TRIPOS>MOLECULE
****
   47    50     0     0     0
SMALL
NO_CHARGES

@<TRIPOS>ATOM
      1 H1          3.4750    0.1440   -6.5170 H         1 <0>         0.0000
      2 H2          0.6100    2.7560   -7.9840 H         1 <0>         0.0000
      3 H3          4.0360    2.6940   -8.7640 H         1 <0>         0.0000
      4 H4          5.9540    3.2000   -5.1250 H         1 <0>         0.0000
      5 H5          2.7690   -1.5300   -8.0570 H         1 <0>         0.0000
      6 H6         -0.0690    1.0770   -9.5410 H         1 <0>         0.0000
      7 H7          6.1800    2.4100   -9.8340 H         1 <0>         0.0000
      8 H8          8.0530    2.9280   -6.1700 H         1 <0>         0.0000
      9 H9          0.9580    2.1480   -4.7510 H         1 <0>         0.0000
     10 H10         4.4080    4.1730   -4.3490 H         1 <0>         0.0000
     11 H11        -2.2010    7.2560   -5.1090 H         1 <0>         0.0000
     12 H12        -2.4830    5.6780   -5.4200 H         1 <0>         0.0000
     13 H13        -2.1350    6.1610   -3.8990 H         1 <0>         0.0000
     14 H14         5.9000    6.2940   -5.2900 H         1 <0>         0.0000
     15 H15         5.1830    5.4400   -4.0970 H         1 <0>         0.0000
     16 H16         4.7930    5.1510   -5.6560 H         1 <0>         0.0000
     17 H17         8.6270    2.2940   -9.6000 H         1 <0>         0.0000
     18 C1          2.7320    0.3330   -7.1590 C.ar      1 <0>         0.0000
     19 C2          1.0660    1.8660   -8.0100 C.ar      1 <0>         0.0000
     20 C3          4.8800    2.7620   -8.2320 C.ar      1 <0>         0.0000
     21 C4          6.0010    3.0570   -6.1140 C.ar      1 <0>         0.0000
     22 C5          2.3260   -0.6330   -8.0470 C.ar      1 <0>         0.0000
     23 C6          0.6760    0.8890   -8.9010 C.ar      1 <0>         0.0000
     24 C7          6.1260    2.5770   -8.8490 C.ar      1 <0>         0.0000
     25 C8          7.2160    2.8780   -6.7150 C.ar      1 <0>         0.0000
     26 C9          2.1070    1.5710   -7.1570 C.ar      1 <0>         0.0000
     27 C10         4.8330    3.0430   -6.8610 C.ar      1 <0>         0.0000
     28 C11         1.2980   -0.3500   -8.9260 C.ar      1 <0>         0.0000
     29 C12         7.2920    2.6270   -8.0790 C.ar      1 <0>         0.0000
     30 C13         2.5010    2.4800   -6.2160 C.2       1 <0>         0.0000
     31 C14         3.6910    3.1730   -6.0990 C.2       1 <0>         0.0000
     32 C15         1.2350    4.2600   -4.8340 C.2       1 <0>         0.0000
     33 C16         2.4390    4.9570   -4.7180 C.2       1 <0>         0.0000
     34 C17        -0.2390    4.7210   -4.7530 C.2       1 <0>         0.0000
     35 C18         2.6420    6.4510   -4.5030 C.2       1 <0>         0.0000
     36 C19         1.6560    2.8230   -4.9880 C.3       1 <0>         0.0000
     37 C20         3.5470    3.9090   -4.7850 C.3       1 <0>         0.0000
     38 C21        -1.9480    6.3190   -4.8690 C.3       1 <0>         0.0000
     39 C22         5.0500    5.8570   -4.9960 C.3       1 <0>         0.0000
     40 O1          0.9090   -1.2990   -9.8110 O.3       1 <0>         0.0000
     41 O2         -1.0200    3.6540   -5.3900 O.2       1 <0>         0.0000
     42 O3          1.6180    7.2120   -5.2100 O.2       1 <0>         0.0000
     43 O4          2.7920    2.8770   -4.0880 O.3       1 <0>         0.0000
     44 O5          8.5280    2.4600   -8.6190 O.3       1 <0>         0.0000
     45 O6         -0.5600    6.1210   -5.1240 O.3       1 <0>         0.0000
     46 O7          3.9920    6.8570   -4.9160 O.3       1 <0>         0.0000
     47 H18         0.1987   -0.9628  -10.3448 H         1 <0>         0.0000
@<TRIPOS>BOND
     1    1   18 1
     2    2   19 1
     3    3   20 1
     4    4   21 1
     5    5   22 1
     6    6   23 1
     7    7   24 1
     8    8   25 1
     9    9   36 1
    10   10   37 1
    11   11   38 1
    12   12   38 1
    13   13   38 1
    14   14   39 1
    15   15   39 1
    16   16   39 1
    17   17   44 1
    18   18   22 ar
    19   18   26 ar
    20   19   23 ar
    21   19   26 ar
    22   20   24 ar
    23   20   27 ar
    24   21   25 ar
    25   21   27 ar
    26   22   28 ar
    27   23   28 ar
    28   24   29 ar
    29   25   29 ar
    30   26   30 1
    31   27   31 1
    32   28   40 1
    33   29   44 1
    34   30   31 2
    35   30   36 1
    36   31   37 1
    37   32   33 2
    38   32   34 1
    39   32   36 1
    40   33   35 1
    41   33   37 1
    42   34   41 2
    43   34   45 1
    44   35   42 2
    45   35   46 1
    46   36   43 1
    47   37   43 1
    48   38   45 1
    49   39   46 1
    50   40   47 1
