@<TRIPOS>MOLECULE
****
   30    32     0     0     0
SMALL
NO_CHARGES

@<TRIPOS>ATOM
      1 H1          4.8520    3.2720   -9.9960 H         1 <0>         0.0000
      2 H2          5.9250    3.6740   -6.0060 H         1 <0>         0.0000
      3 H3          7.1450    3.5850  -10.6360 H         1 <0>         0.0000
      4 H4          8.1980    4.0020   -6.6460 H         1 <0>         0.0000
      5 H5          3.9730    4.7610   -6.0320 H         1 <0>         0.0000
      6 H6          3.5300    1.6600   -8.7680 H         1 <0>         0.0000
      7 H7          2.7050    5.7040   -4.4330 H         1 <0>         0.0000
      8 H8          1.1450    6.1760   -4.3360 H         1 <0>         0.0000
      9 H9          1.7490    5.1230   -3.2440 H         1 <0>         0.0000
     10 H10        -0.7260    4.6240   -3.5810 H         1 <0>         0.0000
     11 H11        -1.6310    3.3470   -4.3220 H         1 <0>         0.0000
     12 H12         9.4430    3.9780   -9.9580 H         1 <0>         0.0000
     13 C1          5.5530    3.4290   -9.3000 C.ar      1 <0>         0.0000
     14 C2          6.1800    3.6660   -6.9730 C.ar      1 <0>         0.0000
     15 C3          6.8840    3.6080   -9.6710 C.ar      1 <0>         0.0000
     16 C4          7.4980    3.8490   -7.3440 C.ar      1 <0>         0.0000
     17 C5          3.4250    4.0360   -6.4490 C.ar      1 <0>         0.0000
     18 C6          3.1480    2.2270   -8.0380 C.ar      1 <0>         0.0000
     19 C7          5.2080    3.4710   -7.9500 C.ar      1 <0>         0.0000
     20 C8          3.9170    3.2650   -7.4980 C.ar      1 <0>         0.0000
     21 C9          2.1430    3.7530   -6.0100 C.ar      1 <0>         0.0000
     22 C10         7.8510    3.8200   -8.6870 C.ar      1 <0>         0.0000
     23 C11         1.4040    2.7230   -6.5980 C.ar      1 <0>         0.0000
     24 C12         0.2250    3.6340   -5.0580 C.2       1 <0>         0.0000
     25 C13         1.7770    5.4130   -4.2000 C.3       1 <0>         0.0000
     26 N1          1.9260    1.9850   -7.5990 N.ar      1 <0>         0.0000
     27 N2          0.2200    2.6780   -5.9800 N.2       1 <0>         0.0000
     28 N3          1.3810    4.2840   -5.0700 N.pl3     1 <0>         0.0000
     29 N4         -0.7930    3.8890   -4.2550 N.pl3     1 <0>         0.0000
     30 O1          9.1520    3.9970   -9.0010 O.3       1 <0>         0.0000
@<TRIPOS>BOND
     1    1   13 1
     2    2   14 1
     3    3   15 1
     4    4   16 1
     5    5   17 1
     6    6   18 1
     7    7   25 1
     8    8   25 1
     9    9   25 1
    10   10   29 1
    11   11   29 1
    12   12   30 1
    13   13   15 ar
    14   13   19 ar
    15   14   16 ar
    16   14   19 ar
    17   15   22 ar
    18   16   22 ar
    19   17   20 ar
    20   17   21 ar
    21   18   20 ar
    22   18   26 ar
    23   19   20 1
    24   21   23 ar
    25   21   28 1
    26   22   30 1
    27   23   26 ar
    28   23   27 1
    29   24   27 2
    30   24   28 1
    31   24   29 1
    32   25   28 1
