@<TRIPOS>MOLECULE
****
   37    39     0     0     0
SMALL
NO_CHARGES

@<TRIPOS>ATOM
      1 H1          1.1880    1.0910   -8.1160 H         1 <0>         0.0000
      2 H2          3.3900    2.0550   -8.2160 H         1 <0>         0.0000
      3 H3          4.7250    3.3600   -8.8900 H         1 <0>         0.0000
      4 H4         -0.3370    1.8110   -6.4290 H         1 <0>         0.0000
      5 H5          6.8560    3.1680   -9.9490 H         1 <0>         0.0000
      6 H6          8.6840    4.3080   -6.4030 H         1 <0>         0.0000
      7 H7          2.1040    8.7170   -4.0970 H         1 <0>         0.0000
      8 H8          3.0920    7.8750   -2.9500 H         1 <0>         0.0000
      9 H9          1.3640    6.6440   -4.9920 H         1 <0>         0.0000
     10 H10         3.2210    5.5810   -3.0740 H         1 <0>         0.0000
     11 H11         1.7230    4.9520   -3.2420 H         1 <0>         0.0000
     12 H12         9.2960    3.3260   -9.7730 H         1 <0>         0.0000
     13 H13         5.7000    4.6540   -4.5470 H         1 <0>         0.0000
     14 C1          1.4650    1.7880   -7.4550 C.ar      1 <0>         0.0000
     15 C2          2.7450    2.3420   -7.5080 C.ar      1 <0>         0.0000
     16 C3          5.5570    3.5600   -8.3730 C.ar      1 <0>         0.0000
     17 C4          0.5760    2.2170   -6.4700 C.ar      1 <0>         0.0000
     18 C5          6.7970    3.4450   -8.9900 C.ar      1 <0>         0.0000
     19 C6          7.8570    4.1050   -6.9270 C.ar      1 <0>         0.0000
     20 C7          3.1190    3.3050   -6.5600 C.ar      1 <0>         0.0000
     21 C8          5.4660    3.9520   -7.0390 C.ar      1 <0>         0.0000
     22 C9          0.9250    3.1980   -5.5400 C.ar      1 <0>         0.0000
     23 C10         2.2280    3.7330   -5.5670 C.ar      1 <0>         0.0000
     24 C11         7.9620    3.7180   -8.2660 C.ar      1 <0>         0.0000
     25 C12         6.6250    4.2080   -6.3260 C.ar      1 <0>         0.0000
     26 C13         4.2690    4.0510   -6.3400 C.2       1 <0>         0.0000
     27 C14         2.4430    7.8590   -3.7110 C.2       1 <0>         0.0000
     28 C15         2.0130    6.6470   -4.2310 C.2       1 <0>         0.0000
     29 C16         2.4680    5.4250   -3.7130 C.3       1 <0>         0.0000
     30 C17        -0.1270    3.4860   -4.4940 C.3       1 <0>         0.0000
     31 N1          4.0640    4.8180   -5.2770 N.2       1 <0>         0.0000
     32 N2          2.9280    4.6330   -4.8480 N.pl3     1 <0>         0.0000
     33 O1          9.1980    3.6090   -8.8190 O.3       1 <0>         0.0000
     34 O2          6.5810    4.5700   -5.0130 O.3       1 <0>         0.0000
     35 F1          0.2840    2.9380   -3.3490 F         1 <0>         0.0000
     36 F2         -1.3780    3.5820   -4.7280 F         1 <0>         0.0000
     37 F3         -0.0310    4.8080   -4.2780 F         1 <0>         0.0000
@<TRIPOS>BOND
     1    1   14 1
     2    2   15 1
     3    3   16 1
     4    4   17 1
     5    5   18 1
     6    6   19 1
     7    7   27 1
     8    8   27 1
     9    9   28 1
    10   10   29 1
    11   11   29 1
    12   12   33 1
    13   13   34 1
    14   14   15 ar
    15   14   17 ar
    16   15   20 ar
    17   16   18 ar
    18   16   21 ar
    19   17   22 ar
    20   18   24 ar
    21   19   24 ar
    22   19   25 ar
    23   20   23 ar
    24   20   26 1
    25   21   25 ar
    26   21   26 1
    27   22   23 ar
    28   22   30 1
    29   23   32 1
    30   24   33 1
    31   25   34 1
    32   26   31 2
    33   27   28 2
    34   28   29 1
    35   29   32 1
    36   30   35 1
    37   30   36 1
    38   30   37 1
    39   31   32 1
