@<TRIPOS>MOLECULE
****
   33    35     0     0     0
SMALL
NO_CHARGES

@<TRIPOS>ATOM
      1 H1         20.1560   -3.1570    3.0480 H         1 <0>         0.0000
      2 H2         21.6780   -4.6520    5.4060 H         1 <0>         0.0000
      3 H3         20.1580   -2.2570    0.9350 H         1 <0>         0.0000
      4 H4         23.8480   -3.9200    5.2050 H         1 <0>         0.0000
      5 H5         16.5580   -0.6750    1.6020 H         1 <0>         0.0000
      6 H6         22.5470   -0.1390    5.1410 H         1 <0>         0.0000
      7 H7         16.5590   -3.6940    4.8000 H         1 <0>         0.0000
      8 H8         20.0490   -4.6900    6.9460 H         1 <0>         0.0000
      9 H9         17.5580   -0.3010   -0.4510 H         1 <0>         0.0000
     10 H10        25.4410   -2.1530    5.0180 H         1 <0>         0.0000
     11 C1         19.3660   -2.6190    2.7540 C.ar      1 <0>         0.0000
     12 C2         21.8500   -3.6680    5.3500 C.ar      1 <0>         0.0000
     13 C3         19.3700   -2.0990    1.5300 C.ar      1 <0>         0.0000
     14 C4         23.1100   -3.2460    5.2350 C.ar      1 <0>         0.0000
     15 C5         17.3470   -1.2090    1.9060 C.ar      1 <0>         0.0000
     16 C6         22.3780   -1.1230    5.1990 C.ar      1 <0>         0.0000
     17 C7         18.3580   -2.4540    3.6030 C.ar      1 <0>         0.0000
     18 C8         20.8070   -2.8340    5.3940 C.ar      1 <0>         0.0000
     19 C9         18.3530   -1.3760    1.0800 C.ar      1 <0>         0.0000
     20 C10        23.4120   -1.9540    5.1590 C.ar      1 <0>         0.0000
     21 C11        17.3380   -1.7200    3.1240 C.ar      1 <0>         0.0000
     22 C12        21.1280   -1.5510    5.3130 C.ar      1 <0>         0.0000
     23 C13        17.4370   -3.7190    5.2780 C.2       1 <0>         0.0000
     24 C14        19.3070   -4.2520    6.4380 C.2       1 <0>         0.0000
     25 C15        18.4700   -3.0280    4.8110 C.2       1 <0>         0.0000
     26 C16        19.5690   -3.3330    5.5140 C.2       1 <0>         0.0000
     27 O1         17.2870   -6.0280    6.4930 O.2       1 <0>         0.0000
     28 O2         17.1500   -3.9770    7.8680 O.2       1 <0>         0.0000
     29 O3         18.3430   -0.8400   -0.1470 O.3       1 <0>         0.0000
     30 O4         24.6810   -1.5040    5.0470 O.3       1 <0>         0.0000
     31 S1         17.6200   -4.6850    6.7510 S.o2      1 <0>         0.0000
     32 Cl1        15.8920   -1.3130    3.9260 Cl        1 <0>         0.0000
     33 Cl2        19.9940   -0.3020    5.3560 Cl        1 <0>         0.0000
@<TRIPOS>BOND
     1    1   11 1
     2    2   12 1
     3    3   13 1
     4    4   14 1
     5    5   15 1
     6    6   16 1
     7    7   23 1
     8    8   24 1
     9    9   29 1
    10   10   30 1
    11   11   13 ar
    12   11   17 ar
    13   12   14 ar
    14   12   18 ar
    15   13   19 ar
    16   14   20 ar
    17   15   19 ar
    18   15   21 ar
    19   16   20 ar
    20   16   22 ar
    21   17   21 ar
    22   17   25 1
    23   18   22 ar
    24   18   26 1
    25   19   29 1
    26   20   30 1
    27   21   32 1
    28   22   33 1
    29   23   25 2
    30   23   31 1
    31   24   26 2
    32   24   31 1
    33   25   26 1
    34   27   31 2
    35   28   31 2
