@<TRIPOS>MOLECULE
****
   59    63     0     0     0
SMALL
NO_CHARGES

@<TRIPOS>ATOM
      1 H1        -19.8780  -28.1840   -3.0070 H         1 <0>         0.0000
      2 H2        -21.4620  -29.3340   -5.2980 H         1 <0>         0.0000
      3 H3        -19.9510  -27.1410   -0.8490 H         1 <0>         0.0000
      4 H4        -23.6630  -28.4120   -4.9910 H         1 <0>         0.0000
      5 H5        -23.2700  -29.2910   -9.6270 H         1 <0>         0.0000
      6 H6        -20.5870  -32.2900  -10.7750 H         1 <0>         0.0000
      7 H7        -21.4560  -27.6810   -9.5770 H         1 <0>         0.0000
      8 H8        -18.7680  -30.6850  -10.7220 H         1 <0>         0.0000
      9 H9        -16.3910  -25.1100   -1.6680 H         1 <0>         0.0000
     10 H10       -22.0910  -24.5470   -5.1150 H         1 <0>         0.0000
     11 H11       -16.0040  -29.0750   -7.0000 H         1 <0>         0.0000
     12 H12       -16.5000  -27.5230   -6.8890 H         1 <0>         0.0000
     13 H13       -16.3110  -28.7130   -4.6230 H         1 <0>         0.0000
     14 H14       -19.9670  -29.5100   -6.7880 H         1 <0>         0.0000
     15 H15       -17.8730  -29.6810   -7.9950 H         1 <0>         0.0000
     16 H16       -16.0160  -26.4700   -4.9010 H         1 <0>         0.0000
     17 H17       -15.9640  -25.0060   -4.1780 H         1 <0>         0.0000
     18 H18       -15.1150  -26.2550   -3.5560 H         1 <0>         0.0000
     19 H19       -18.7610  -25.5750   -5.5750 H         1 <0>         0.0000
     20 H20       -19.8230  -24.5280   -6.2400 H         1 <0>         0.0000
     21 H21       -19.6110  -24.5580   -4.6210 H         1 <0>         0.0000
     22 H22       -22.9060  -32.7470  -10.4800 H         1 <0>         0.0000
     23 H23       -17.4980  -24.8220    0.4050 H         1 <0>         0.0000
     24 H24       -25.0740  -26.5360   -4.7750 H         1 <0>         0.0000
     25 C1        -19.1560  -27.5470   -2.7360 C.ar      1 <0>         0.0000
     26 C2        -21.5850  -28.3420   -5.2630 C.ar      1 <0>         0.0000
     27 C3        -19.1990  -26.9410   -1.4780 C.ar      1 <0>         0.0000
     28 C4        -22.8740  -27.8040   -5.0830 C.ar      1 <0>         0.0000
     29 C5        -22.3370  -29.5710   -9.8520 C.ar      1 <0>         0.0000
     30 C6        -20.7570  -31.3360  -10.5270 C.ar      1 <0>         0.0000
     31 C7        -21.2800  -28.6350   -9.8200 C.ar      1 <0>         0.0000
     32 C8        -19.7000  -30.4020  -10.4940 C.ar      1 <0>         0.0000
     33 C9        -17.1090  -25.7440   -1.9560 C.ar      1 <0>         0.0000
     34 C10       -21.9560  -25.5370   -5.1550 C.ar      1 <0>         0.0000
     35 C11       -18.0910  -27.2620   -3.6320 C.ar      1 <0>         0.0000
     36 C12       -20.4600  -27.4890   -5.3950 C.ar      1 <0>         0.0000
     37 C13       -17.0590  -26.3460   -3.2310 C.ar      1 <0>         0.0000
     38 C14       -20.6610  -26.0780   -5.3350 C.ar      1 <0>         0.0000
     39 C15       -22.0590  -30.8970  -10.2030 C.ar      1 <0>         0.0000
     40 C16       -19.9720  -29.0620  -10.1350 C.ar      1 <0>         0.0000
     41 C17       -18.1730  -26.0430   -1.0980 C.ar      1 <0>         0.0000
     42 C18       -23.0490  -26.4120   -5.0330 C.ar      1 <0>         0.0000
     43 C19       -18.1170  -27.8870   -4.8390 C.2       1 <0>         0.0000
     44 C20       -19.2560  -28.1000   -5.5670 C.2       1 <0>         0.0000
     45 C21       -16.7550  -28.4760   -6.7230 C.3       1 <0>         0.0000
     46 C22       -17.0990  -28.6930   -5.2390 C.3       1 <0>         0.0000
     47 C23       -19.1110  -29.1360   -6.4320 C.3       1 <0>         0.0000
     48 C24       -18.0470  -28.8340   -7.4930 C.3       1 <0>         0.0000
     49 C25       -15.9600  -25.9940   -4.0230 C.3       1 <0>         0.0000
     50 C26       -19.6400  -25.1150   -5.4510 C.3       1 <0>         0.0000
     51 O1        -17.2680  -31.2810   -6.3450 O.3       1 <0>         0.0000
     52 O2        -17.4130  -26.5110   -8.9600 O.3       1 <0>         0.0000
     53 O3        -19.7840  -26.7330   -8.2490 O.3       1 <0>         0.0000
     54 O4        -23.0830  -31.7950  -10.2320 O.3       1 <0>         0.0000
     55 O5        -18.2180  -25.4580    0.1280 O.3       1 <0>         0.0000
     56 O6        -24.2950  -25.9150   -4.8630 O.3       1 <0>         0.0000
     57 O7        -18.9430  -28.1570  -10.1220 O.3       1 <0>         0.0000
     58 S1        -18.0500  -30.3730   -5.4010 S.3       1 <0>         0.0000
     59 S2        -18.5770  -27.4850   -8.7870 S.3       1 <0>         0.0000
@<TRIPOS>BOND
     1    1   25 1
     2    2   26 1
     3    3   27 1
     4    4   28 1
     5    5   29 1
     6    6   30 1
     7    7   31 1
     8    8   32 1
     9    9   33 1
    10   10   34 1
    11   11   45 1
    12   12   45 1
    13   13   46 1
    14   14   47 1
    15   15   48 1
    16   16   49 1
    17   17   49 1
    18   18   49 1
    19   19   50 1
    20   20   50 1
    21   21   50 1
    22   22   54 1
    23   23   55 1
    24   24   56 1
    25   25   27 ar
    26   25   35 ar
    27   26   28 ar
    28   26   36 ar
    29   27   41 ar
    30   28   42 ar
    31   29   31 ar
    32   29   39 ar
    33   30   32 ar
    34   30   39 ar
    35   31   40 ar
    36   32   40 ar
    37   33   37 ar
    38   33   41 ar
    39   34   38 ar
    40   34   42 ar
    41   35   37 ar
    42   35   43 1
    43   36   38 ar
    44   36   44 1
    45   37   49 1
    46   38   50 1
    47   39   54 1
    48   40   57 1
    49   41   55 1
    50   42   56 1
    51   43   44 2
    52   43   46 1
    53   44   47 1
    54   45   46 1
    55   45   48 1
    56   46   58 1
    57   47   48 1
    58   47   58 1
    59   48   59 1
    60   51   58 1
    61   52   59 1
    62   53   59 1
    63   57   59 1
