#	Name:			<unnamed>
#	Creating user name:	vkhoa
#	Creation time:		Wed Sep 25 10:57:49 2019

#	Modifying user name:	vkhoa
#	Modification time:	Wed Sep 25 11:00:32 2019

@<TRIPOS>MOLECULE
****
   56    58     1     0     2
SMALL
NO_CHARGES


@<TRIPOS>ATOM
      1 H1         21.3202   -3.7621    5.0139 H         1 <1>         0.0000 
      2 H2         19.9752    0.1699    5.0179 H         1 <1>         0.0000 
      3 H3         23.6282   -2.9711    5.2619 H         1 <1>         0.0000 
      4 H4         22.2912    0.9469    5.2499 H         1 <1>         0.0000 
      5 H5         16.7899   -0.7238    4.3207 H         1 <1>         0.0000 
      6 H6         19.0242   -0.3436    0.9470 H         1 <1>         0.0000 
      7 H7         15.2617   -0.8169    2.3525 H         1 <1>         0.0000 
      8 H8         20.1487   -1.9638    2.4686 H         1 <1>         0.0000 
      9 H9         16.4510   -3.3010    6.2270 H         1 <1>         0.0000 
     10 H10        16.8090   -3.7560    4.7000 H         1 <1>         0.0000 
     11 H11        20.0800   -3.0200    7.0760 H         1 <1>         0.0000 
     12 H12        18.6380   -2.8230    7.8150 H         1 <1>         0.0000 
     13 H13        16.2000   -5.6030    6.1050 H         1 <1>         0.0000 
     14 H14        17.6840   -5.7720    5.4430 H         1 <1>         0.0000 
     15 H15        17.7850   -6.3800    7.7260 H         1 <1>         0.0000 
     16 H16        17.1670   -4.9320    8.1600 H         1 <1>         0.0000 
     17 H17        19.7280   -5.3310    6.8980 H         1 <1>         0.0000 
     18 H18        24.0490   -4.4590    9.2710 H         1 <1>         0.0000 
     19 H19        23.2160   -3.2730   10.0230 H         1 <1>         0.0000 
     20 H20        22.9580   -4.8340   10.4270 H         1 <1>         0.0000 
     21 H21        21.2100   -7.6540   12.1200 H         1 <1>         0.0000 
     22 H22        19.6700   -7.2460   11.7590 H         1 <1>         0.0000 
     23 H23        20.4160   -8.4360   10.9260 H         1 <1>         0.0000 
     24 H24        19.0020   -4.6540    9.6260 H         1 <1>         0.0000 
     25 H25        25.2052   -1.2151    5.4479 H         1 <1>         0.0000 
     26 H26        17.0774   -0.3743   -0.7992 H         1 <1>         0.0000 
     27 C1         21.5092   -2.7821    5.0709 C.ar      1 <1>         0.0000 
     28 C2         20.7212   -0.4931    5.0709 C.ar      1 <1>         0.0000 
     29 C3         22.8782   -2.3121    5.2079 C.ar      1 <1>         0.0000 
     30 C4         22.0942   -0.0321    5.2029 C.ar      1 <1>         0.0000 
     31 C5         20.4452   -1.8531    5.0179 C.ar      1 <1>         0.0000 
     32 C6         23.1442   -0.9641    5.2639 C.ar      1 <1>         0.0000 
     33 C7         16.9299   -1.5105    3.5882 C.ar      1 <1>         0.0000 
     34 C8         18.4889   -1.2415    1.2342 C.ar      1 <1>         0.0000 
     35 C9         18.4750   -3.1360    5.7790 C.2       1 <1>         0.0000 
     36 C10        16.3189   -1.0555    2.3742 C.ar      1 <1>         0.0000 
     37 C11        19.0939   -1.7145    2.4502 C.ar      1 <1>         0.0000 
     38 C12        18.3199   -1.8545    3.6152 C.ar      1 <1>         0.0000 
     39 C13        17.1019   -0.9195    1.2072 C.ar      1 <1>         0.0000 
     40 C14        19.0202   -2.3288    4.8661 C.2       1 <1>         0.0000 
     41 C15        20.9050   -3.9690    9.1560 C.2       1 <1>         0.0000 
     42 C16        20.1390   -6.3840    9.3460 C.2       1 <1>         0.0000 
     43 C17        17.1030   -3.7980    5.6550 C.3       1 <1>         0.0000 
     44 C18        19.1360   -3.3460    7.1240 C.3       1 <1>         0.0000 
     45 C19        17.1350   -5.2480    6.0950 C.3       1 <1>         0.0000 
     46 C20        17.7410   -5.4080    7.4940 C.3       1 <1>         0.0000 
     47 C21        19.1410   -4.8200    7.5260 C.3       1 <1>         0.0000 
     48 C22        23.1690   -4.2090    9.6750 C.3       1 <1>         0.0000 
     49 C23        20.5430   -7.5550   11.3810 C.3       1 <1>         0.0000 
     50 C24        19.7200   -4.9340    8.9880 C.3       1 <1>         0.0000 
     51 O1         20.7750   -2.9860    9.7760 O.2       1 <1>         0.0000 
     52 O2         19.9970   -7.2930    8.5100 O.2       1 <1>         0.0000 
     53 O3         24.4682   -0.5411    5.3959 O.3       1 <1>         0.0000 
     54 O4         16.5214   -0.4703    0.0268 O.3       1 <1>         0.0000 
     55 O5         22.1370   -4.2980    8.6710 O.3       1 <1>         0.0000 
     56 O6         21.0200   -6.5930   10.4330 O.3       1 <1>         0.0000 
@<TRIPOS>BOND
     1   27    1 1    
     2   28    2 1    
     3   29    3 1    
     4   30    4 1    
     5   33    5 1    
     6   34    6 1    
     7   36    7 1    
     8   37    8 1    
     9   43    9 1    
    10   43   10 1    
    11   44   11 1    
    12   44   12 1    
    13   45   13 1    
    14   45   14 1    
    15   46   15 1    
    16   46   16 1    
    17   47   17 1    
    18   48   18 1    
    19   48   19 1    
    20   48   20 1    
    21   49   21 1    
    22   49   22 1    
    23   49   23 1    
    24   50   24 1    
    25   53   25 1    
    26   54   26 1    
    27   27   29 ar   
    28   31   27 ar   
    29   28   30 ar   
    30   31   28 ar   
    31   29   32 ar   
    32   30   32 ar   
    33   40   31 1    
    34   32   53 1    
    35   33   36 ar   
    36   38   33 ar   
    37   37   34 ar   
    38   34   39 ar   
    39   35   40 2    
    40   35   43 1    
    41   44   35 1    
    42   36   39 ar   
    43   38   37 ar   
    44   40   38 1    
    45   39   54 1    
    46   50   41 1    
    47   41   51 2    
    48   41   55 1    
    49   42   50 1    
    50   42   52 2    
    51   56   42 1    
    52   45   43 1    
    53   47   44 1    
    54   46   45 1    
    55   47   46 1    
    56   50   47 1    
    57   55   48 1    
    58   49   56 1    
@<TRIPOS>SUBSTRUCTURE
     1 ****       21 TEMP              0 ****  ****    0 ROOT 
@<TRIPOS>SET
LAB$A_TYPE      STATIC     ATOMS    LABELGROUP SYSTEM 
56 1 2 3 4 5 6 7 8 9 10 11 12 13 14 15 16 17 18 19 \
 20 21 22 23 24 25 26 27 28 29 30 31 32 33 34 35 36 37 \
 38 39 40 41 42 43 44 45 46 47 48 49 50 51 52 53 54 55 \
 56
LAB$A_ID        STATIC     ATOMS    LABELGROUP SYSTEM 
58 1 2 3 4 5 6 7 8 9 10 11 12 13 14 15 16 17 18 19 \
 20 21 22 23 24 25 26 27 28 29 30 31 32 33 34 35 36 37 \
 38 39 40 41 42 43 44 45 46 47 48 49 50 51 52 53 54 55 \
 56 0 0
