@<TRIPOS>MOLECULE
****
   37    39     0     0     0
SMALL
NO_CHARGES

@<TRIPOS>ATOM
      1 H1        123.8970  103.4970  -47.7110 H         1 <0>         0.0000
      2 H2        124.3590  101.3010  -46.8330 H         1 <0>         0.0000
      3 H3        123.9940  105.4400  -46.2740 H         1 <0>         0.0000
      4 H4        125.2100  107.0830  -40.0510 H         1 <0>         0.0000
      5 H5        124.9240  101.0040  -44.4900 H         1 <0>         0.0000
      6 H6        125.4450  104.6630  -40.1810 H         1 <0>         0.0000
      7 H7        124.2750  107.2630  -44.1350 H         1 <0>         0.0000
      8 H8        127.1430  101.1610  -41.0370 H         1 <0>         0.0000
      9 H9        127.3270  101.7560  -42.5470 H         1 <0>         0.0000
     10 H10       127.3270  102.7670  -41.2650 H         1 <0>         0.0000
     11 H11       122.1910  110.9930  -41.1340 H         1 <0>         0.0000
     12 H12       123.7170  110.9790  -40.5530 H         1 <0>         0.0000
     13 H13       123.4500  111.2610  -42.1390 H         1 <0>         0.0000
     14 H14       125.2050  109.1820  -41.1640 H         1 <0>         0.0000
     15 H15       124.9000  109.3420  -42.7600 H         1 <0>         0.0000
     16 H16       125.0320  101.2430  -42.1410 H         1 <0>         0.0000
     17 H17       125.0320  102.2550  -40.8590 H         1 <0>         0.0000
     18 H18       122.9144  108.7986  -40.8054 H         1 <0>         0.0000
     19 C1        124.1290  103.3890  -46.7440 C.ar      1 <0>         0.0000
     20 C2        124.4010  102.0950  -46.2260 C.ar      1 <0>         0.0000
     21 C3        124.1840  104.5310  -45.9020 C.ar      1 <0>         0.0000
     22 C4        125.0670  106.6170  -40.9240 C.ar      1 <0>         0.0000
     23 C5        124.7320  101.9150  -44.8550 C.ar      1 <0>         0.0000
     24 C6        125.2080  105.1940  -40.9940 C.ar      1 <0>         0.0000
     25 C7        124.5170  106.7290  -43.3250 C.ar      1 <0>         0.0000
     26 C8        124.5150  104.3730  -44.5110 C.ar      1 <0>         0.0000
     27 C9        124.6530  105.2950  -43.4270 C.ar      1 <0>         0.0000
     28 C10       124.7230  107.3860  -42.0870 C.ar      1 <0>         0.0000
     29 C11       124.7830  103.0700  -44.0110 C.ar      1 <0>         0.0000
     30 C12       125.0000  104.5460  -42.2620 C.ar      1 <0>         0.0000
     31 C13       126.9350  101.9290  -41.6430 C.3       1 <0>         0.0000
     32 C14       123.1400  110.7510  -41.3370 C.3       1 <0>         0.0000
     33 C15       124.6090  108.8950  -41.9140 C.3       1 <0>         0.0000
     34 C16       125.4180  102.0860  -41.7660 C.3       1 <0>         0.0000
     35 N1        125.0730  103.2080  -42.6510 N.pl3     1 <0>         0.0000
     36 N2        123.2310  109.3010  -41.6100 N.4       1 <0>         0.0000
     37 H19       122.6475  109.0805  -42.3916 H         1 <0>         0.0000
@<TRIPOS>BOND
     1    1   19 1
     2    2   20 1
     3    3   21 1
     4    4   22 1
     5    5   23 1
     6    6   24 1
     7    7   25 1
     8    8   31 1
     9    9   31 1
    10   10   31 1
    11   11   32 1
    12   12   32 1
    13   13   32 1
    14   14   33 1
    15   15   33 1
    16   16   34 1
    17   17   34 1
    18   18   36 1
    19   19   20 ar
    20   19   21 ar
    21   20   23 ar
    22   21   26 ar
    23   22   24 ar
    24   22   28 ar
    25   23   29 ar
    26   24   30 ar
    27   25   27 ar
    28   25   28 ar
    29   26   27 1
    30   26   29 ar
    31   27   30 ar
    32   28   33 1
    33   29   35 1
    34   30   35 1
    35   31   34 1
    36   32   36 1
    37   33   36 1
    38   34   35 1
    39   36   37 1
