@<TRIPOS>MOLECULE
****
   64    66     0     0     0
SMALL
NO_CHARGES

@<TRIPOS>ATOM
      1 H1         92.2760   92.5200  -43.5940 H         1 <0>         0.0000
      2 H2         88.2620   92.7090  -51.9850 H         1 <0>         0.0000
      3 H3         87.3240   90.7960  -50.8940 H         1 <0>         0.0000
      4 H4         90.5310   93.3370  -51.5250 H         1 <0>         0.0000
      5 H5         88.6310   89.5350  -49.3450 H         1 <0>         0.0000
      6 H6         91.8260   92.0810  -49.9640 H         1 <0>         0.0000
      7 H7         90.7630   94.7130  -46.7820 H         1 <0>         0.0000
      8 H8         90.3190  100.3220  -43.2200 H         1 <0>         0.0000
      9 H9         89.4850  101.2910  -44.2360 H         1 <0>         0.0000
     10 H10        93.3830  100.2140  -45.1100 H         1 <0>         0.0000
     11 H11        92.6980   99.7310  -43.7080 H         1 <0>         0.0000
     12 H12        88.7940   99.0130  -44.4900 H         1 <0>         0.0000
     13 H13        89.4620   99.5660  -45.8740 H         1 <0>         0.0000
     14 H14        91.9970   98.7900  -46.3410 H         1 <0>         0.0000
     15 H15        92.6900   97.8980  -45.1620 H         1 <0>         0.0000
     16 H16        91.2960  101.1330  -45.7980 H         1 <0>         0.0000
     17 H17        89.3450  104.4950  -44.5470 H         1 <0>         0.0000
     18 H18        90.7630  104.5330  -45.3560 H         1 <0>         0.0000
     19 H19        89.7450  103.2720  -45.5520 H         1 <0>         0.0000
     20 H20        94.3580  103.5780  -42.2830 H         1 <0>         0.0000
     21 H21        94.0430  103.9710  -43.8360 H         1 <0>         0.0000
     22 H22        92.9380  104.2820  -42.6750 H         1 <0>         0.0000
     23 H23        92.9270   90.6780  -48.5780 H         1 <0>         0.0000
     24 H24        92.6370   89.6050  -47.3810 H         1 <0>         0.0000
     25 H25        90.4090   97.0520  -46.5000 H         1 <0>         0.0000
     26 H26        89.1880   96.9550  -45.4210 H         1 <0>         0.0000
     27 H27        91.1260  103.8890  -43.0960 H         1 <0>         0.0000
     28 H28        90.1080  102.6280  -43.2920 H         1 <0>         0.0000
     29 H29        93.7340  101.6360  -43.5040 H         1 <0>         0.0000
     30 H30        92.6290  101.9470  -42.3430 H         1 <0>         0.0000
     31 H31        90.7510   88.9870  -48.4100 H         1 <0>         0.0000
     32 C1         91.6780   94.4580  -43.0960 C.ar      1 <0>         0.0000
     33 C2         91.7590   92.3600  -46.1960 C.1       1 <0>         0.0000
     34 C3         91.9620   91.4750  -46.9830 C.1       1 <0>         0.0000
     35 C4         91.8810   93.3660  -43.9520 C.ar      1 <0>         0.0000
     36 C5         88.8110   92.1780  -51.3390 C.ar      1 <0>         0.0000
     37 C6         88.2670   91.0680  -50.7030 C.ar      1 <0>         0.0000
     38 C7         90.1280   92.5440  -51.0680 C.ar      1 <0>         0.0000
     39 C8         89.0360   90.3300  -49.7960 C.ar      1 <0>         0.0000
     40 C9         90.8850   91.8020  -50.1560 C.ar      1 <0>         0.0000
     41 C10        90.9950   94.6440  -45.8120 C.ar      1 <0>         0.0000
     42 C11        91.1240   95.6340  -43.6080 C.ar      1 <0>         0.0000
     43 C12        91.5330   93.4550  -45.3070 C.ar      1 <0>         0.0000
     44 C13        90.7800   95.7390  -44.9640 C.ar      1 <0>         0.0000
     45 C14        90.3620   90.6810  -49.5060 C.ar      1 <0>         0.0000
     46 C15        90.1590  100.5540  -44.1790 C.3       1 <0>         0.0000
     47 C16        92.5330   99.9110  -44.6780 C.3       1 <0>         0.0000
     48 C17        89.6400   99.3320  -44.9180 C.3       1 <0>         0.0000
     49 C18        92.0460   98.6390  -45.3540 C.3       1 <0>         0.0000
     50 C19        91.4680  101.0070  -44.8210 C.3       1 <0>         0.0000
     51 C20        90.0990  103.9410  -44.8990 C.3       1 <0>         0.0000
     52 C21        93.6440  103.6430  -42.9800 C.3       1 <0>         0.0000
     53 C22        92.2560   90.3680  -47.9040 C.3       1 <0>         0.0000
     54 C23        90.1810   96.9990  -45.5280 C.3       1 <0>         0.0000
     55 C24        90.7760  103.2160  -43.7470 C.3       1 <0>         0.0000
     56 C25        93.0260  102.2730  -43.2010 C.3       1 <0>         0.0000
     57 N1         91.0760   89.9140  -48.5970 N.pl3     1 <0>         0.0000
     58 N2         90.6830   98.2530  -44.8460 N.4       1 <0>         0.0000
     59 N3         91.9400  102.3560  -44.2570 N.4       1 <0>         0.0000
     60 O1         90.9230   96.7270  -42.7950 O.3       1 <0>         0.0000
     61 H32        91.9470   94.3907  -42.0522 H         1 <0>         0.0000
     62 H33        90.7928   98.0255  -43.8784 H         1 <0>         0.0000
     63 H34        92.3361  102.8549  -45.0278 H         1 <0>         0.0000
     64 H35        90.5414   97.4337  -43.3024 H         1 <0>         0.0000
@<TRIPOS>BOND
     1    1   35 1
     2    2   36 1
     3    3   37 1
     4    4   38 1
     5    5   39 1
     6    6   40 1
     7    7   41 1
     8    8   46 1
     9    9   46 1
    10   10   47 1
    11   11   47 1
    12   12   48 1
    13   13   48 1
    14   14   49 1
    15   15   49 1
    16   16   50 1
    17   17   51 1
    18   18   51 1
    19   19   51 1
    20   20   52 1
    21   21   52 1
    22   22   52 1
    23   23   53 1
    24   24   53 1
    25   25   54 1
    26   26   54 1
    27   27   55 1
    28   28   55 1
    29   29   56 1
    30   30   56 1
    31   31   57 1
    32   32   35 ar
    33   32   42 ar
    34   33   34 3
    35   33   43 1
    36   34   53 1
    37   35   43 ar
    38   36   37 ar
    39   36   38 ar
    40   37   39 ar
    41   38   40 ar
    42   39   45 ar
    43   40   45 ar
    44   41   43 ar
    45   41   44 ar
    46   42   44 ar
    47   42   60 1
    48   44   54 1
    49   45   57 1
    50   46   48 1
    51   46   50 1
    52   47   49 1
    53   47   50 1
    54   48   58 1
    55   49   58 1
    56   50   59 1
    57   51   55 1
    58   52   56 1
    59   53   57 1
    60   54   58 1
    61   55   59 1
    62   56   59 1
    63   32   61 1
    64   58   62 1
    65   59   63 1
    66   60   64 1
