@<TRIPOS>MOLECULE
****
   39    41     0     0     0
SMALL
NO_CHARGES

@<TRIPOS>ATOM
      1 H1         94.4330   89.8820  -41.3160 H         1 <0>         0.0000
      2 H2         92.1670   88.6130  -41.2850 H         1 <0>         0.0000
      3 H3         94.0430   92.0880  -42.5250 H         1 <0>         0.0000
      4 H4         90.4510   90.0750  -42.4730 H         1 <0>         0.0000
      5 H5         91.9410   88.7880  -48.9330 H         1 <0>         0.0000
      6 H6         92.1200   90.2720  -49.5900 H         1 <0>         0.0000
      7 H7         92.3870   90.0480  -47.9940 H         1 <0>         0.0000
      8 H8         87.6460   92.6380  -50.1280 H         1 <0>         0.0000
      9 H9         87.8090   91.1250  -49.5360 H         1 <0>         0.0000
     10 H10        87.6190   92.3860  -48.5150 H         1 <0>         0.0000
     11 H11        89.8190   89.7840  -49.2730 H         1 <0>         0.0000
     12 H12        90.0860   89.5600  -47.6780 H         1 <0>         0.0000
     13 H13        89.9210   91.9810  -50.2000 H         1 <0>         0.0000
     14 H14        89.7320   93.2410  -49.1790 H         1 <0>         0.0000
     15 H15        90.7000   97.0300  -43.3060 H         1 <0>         0.0000
     16 C1         91.4840   93.8640  -42.7770 C.ar      1 <0>         0.0000
     17 C2         93.5670   90.2010  -41.7010 C.2       1 <0>         0.0000
     18 C3         92.3360   89.5140  -41.6850 C.2       1 <0>         0.0000
     19 C4         93.3490   91.3910  -42.3460 C.2       1 <0>         0.0000
     20 C5         91.4110   90.3090  -42.3200 C.2       1 <0>         0.0000
     21 C6         91.5110   92.6050  -43.3940 C.ar      1 <0>         0.0000
     22 C7         91.0490   95.0020  -43.4650 C.ar      1 <0>         0.0000
     23 C8         90.6140   94.9330  -44.8010 C.ar      1 <0>         0.0000
     24 C9         90.6480   93.6670  -45.4510 C.ar      1 <0>         0.0000
     25 C10        91.0990   92.5540  -44.7340 C.ar      1 <0>         0.0000
     26 C11        90.4380   92.0830  -47.0500 C.2       1 <0>         0.0000
     27 C12        90.1490   96.1700  -45.5030 C.2       1 <0>         0.0000
     28 C13        91.8290   89.7690  -48.7760 C.3       1 <0>         0.0000
     29 C14        88.0220   92.0900  -49.3810 C.3       1 <0>         0.0000
     30 C15        90.3690   90.0720  -48.4890 C.3       1 <0>         0.0000
     31 C16        89.5300   92.2730  -49.3270 C.3       1 <0>         0.0000
     32 N1         90.2750   93.3590  -46.7560 N.2       1 <0>         0.0000
     33 N2         92.0190   91.4750  -42.7100 N.pl3     1 <0>         0.0000
     34 N3         90.1430   91.4940  -48.2510 N.pl3     1 <0>         0.0000
     35 O1         90.0260   97.2110  -44.7780 O.co2     1 <0>         0.0000
     36 O2         89.9520   96.1080  -46.7570 O.co2     1 <0>         0.0000
     37 O3         91.0100   96.2140  -42.8190 O.3       1 <0>         0.0000
     38 S1         91.0390   91.1570  -45.7290 S.3       1 <0>         0.0000
     39 H16        91.8054   93.9571  -41.7501 H         1 <0>         0.0000
@<TRIPOS>BOND
     1    1   17 1
     2    2   18 1
     3    3   19 1
     4    4   20 1
     5    5   28 1
     6    6   28 1
     7    7   28 1
     8    8   29 1
     9    9   29 1
    10   10   29 1
    11   11   30 1
    12   12   30 1
    13   13   31 1
    14   14   31 1
    15   15   37 1
    16   16   21 ar
    17   16   22 ar
    18   17   18 1
    19   17   19 2
    20   18   20 2
    21   19   33 1
    22   20   33 1
    23   21   25 ar
    24   21   33 1
    25   22   23 ar
    26   22   37 1
    27   23   24 ar
    28   23   27 1
    29   24   25 ar
    30   24   32 1
    31   25   38 1
    32   26   32 2
    33   26   34 1
    34   26   38 1
    35   27   35 1
    36   27   36 2
    37   28   30 1
    38   29   31 1
    39   30   34 1
    40   31   34 1
    41   16   39 1
