@<TRIPOS>MOLECULE
****
   52    55     0     0     0
SMALL
NO_CHARGES

@<TRIPOS>ATOM
      1 H1         19.4030   -6.4430   32.2480 H         1 <0>         0.0000
      2 H2         16.6130  -16.2680   25.4920 H         1 <0>         0.0000
      3 H3         17.0260  -18.7340   28.8130 H         1 <0>         0.0000
      4 H4         19.7610   -8.0350   30.5040 H         1 <0>         0.0000
      5 H5         16.1180  -14.4130   26.9290 H         1 <0>         0.0000
      6 H6         16.5260  -16.8850   30.2500 H         1 <0>         0.0000
      7 H7         21.7590  -10.5170   33.1570 H         1 <0>         0.0000
      8 H8         18.9280  -14.3480   30.1380 H         1 <0>         0.0000
      9 H9         18.1620  -14.2760   31.5780 H         1 <0>         0.0000
     10 H10        16.8490  -11.8880   28.5880 H         1 <0>         0.0000
     11 H11        18.1850  -12.7930   28.3400 H         1 <0>         0.0000
     12 H12        19.0500  -12.1380   32.0220 H         1 <0>         0.0000
     13 H13        20.3090  -13.0700   31.5590 H         1 <0>         0.0000
     14 H14        18.7980  -10.5160   28.7920 H         1 <0>         0.0000
     15 H15        18.0360  -10.6030   30.2340 H         1 <0>         0.0000
     16 H16        19.7400   -7.4970   36.4430 H         1 <0>         0.0000
     17 H17        20.6440   -6.1450   36.5870 H         1 <0>         0.0000
     18 H18        22.4970   -7.2720   35.6710 H         1 <0>         0.0000
     19 H19        21.9570   -8.0760   36.9860 H         1 <0>         0.0000
     20 H20        17.3770  -20.7420   26.2290 H         1 <0>         0.0000
     21 H21        17.8920  -19.9960   27.5880 H         1 <0>         0.0000
     22 H22        16.2930  -20.1970   27.3220 H         1 <0>         0.0000
     23 C1         19.8930   -7.2930   32.4420 C.ar      1 <0>         0.0000
     24 C2         16.5970  -16.3960   26.4840 C.ar      1 <0>         0.0000
     25 C3         16.8370  -17.8340   28.4190 C.ar      1 <0>         0.0000
     26 C4         20.0970   -8.2240   31.4270 C.ar      1 <0>         0.0000
     27 C5         16.3140  -15.3110   27.3220 C.ar      1 <0>         0.0000
     28 C6         16.5530  -16.7540   29.2590 C.ar      1 <0>         0.0000
     29 C7         21.2620   -9.6700   32.9700 C.ar      1 <0>         0.0000
     30 C8         20.3700   -7.5430   33.7280 C.ar      1 <0>         0.0000
     31 C9         21.0600   -8.7320   33.9930 C.ar      1 <0>         0.0000
     32 C10        16.8590  -17.6640   27.0290 C.ar      1 <0>         0.0000
     33 C11        16.3060  -15.4860   28.7110 C.ar      1 <0>         0.0000
     34 C12        20.7670   -9.4180   31.6900 C.ar      1 <0>         0.0000
     35 C13        18.4650  -13.7450   30.7870 C.3       1 <0>         0.0000
     36 C14        17.6710  -12.2650   29.0150 C.3       1 <0>         0.0000
     37 C15        19.4570  -12.6400   31.2590 C.3       1 <0>         0.0000
     38 C16        18.5440  -11.1220   29.5460 C.3       1 <0>         0.0000
     39 C17        20.4930   -6.9720   36.0460 C.3       1 <0>         0.0000
     40 C18        21.7400   -7.8060   36.0480 C.3       1 <0>         0.0000
     41 C19        17.1770  -20.0180   26.8890 C.3       1 <0>         0.0000
     42 N1         17.2900  -13.1340   30.1320 N.pl3     1 <0>         0.0000
     43 N2         19.7530  -11.6890   30.1510 N.pl3     1 <0>         0.0000
     44 O1         14.9360  -13.2840   29.0670 O.2       1 <0>         0.0000
     45 O2         15.3490  -14.6410   31.0460 O.2       1 <0>         0.0000
     46 O3         22.2920  -11.2820   30.5740 O.2       1 <0>         0.0000
     47 O4         21.1150   -9.7170   29.1380 O.2       1 <0>         0.0000
     48 O5         20.1620   -6.6060   34.6910 O.3       1 <0>         0.0000
     49 O6         21.5400   -8.9960   35.2380 O.3       1 <0>         0.0000
     50 O7         17.1300  -18.7230   26.1960 O.3       1 <0>         0.0000
     51 S1         15.9440  -14.1280   29.7710 S.o2      1 <0>         0.0000
     52 S2         21.0110  -10.5530   30.3840 S.o2      1 <0>         0.0000
@<TRIPOS>BOND
     1    1   23 1
     2    2   24 1
     3    3   25 1
     4    4   26 1
     5    5   27 1
     6    6   28 1
     7    7   29 1
     8    8   35 1
     9    9   35 1
    10   10   36 1
    11   11   36 1
    12   12   37 1
    13   13   37 1
    14   14   38 1
    15   15   38 1
    16   16   39 1
    17   17   39 1
    18   18   40 1
    19   19   40 1
    20   20   41 1
    21   21   41 1
    22   22   41 1
    23   23   26 ar
    24   23   30 ar
    25   24   27 ar
    26   24   32 ar
    27   25   28 ar
    28   25   32 ar
    29   26   34 ar
    30   27   33 ar
    31   28   33 ar
    32   29   31 ar
    33   29   34 ar
    34   30   31 ar
    35   30   48 1
    36   31   49 1
    37   32   50 1
    38   33   51 1
    39   34   52 1
    40   35   37 1
    41   35   42 1
    42   36   38 1
    43   36   42 1
    44   37   43 1
    45   38   43 1
    46   39   40 1
    47   39   48 1
    48   40   49 1
    49   41   50 1
    50   42   51 1
    51   43   52 1
    52   44   51 2
    53   45   51 2
    54   46   52 2
    55   47   52 2
