@<TRIPOS>MOLECULE
****
   48    51     0     0     0
SMALL
NO_CHARGES

@<TRIPOS>ATOM
      1 H1          3.3740    1.4430   15.2170 H         1 <0>         0.0000
      2 H2         16.5620    2.9480   13.7500 H         1 <0>         0.0000
      3 H3          3.8190    2.8050   13.3030 H         1 <0>         0.0000
      4 H4          5.0400   -0.0980   15.9970 H         1 <0>         0.0000
      5 H5         14.5820    3.1420   15.0510 H         1 <0>         0.0000
      6 H6         13.4060    6.3800   12.7690 H         1 <0>         0.0000
      7 H7         11.3450    2.4940   15.7890 H         1 <0>         0.0000
      8 H8         11.8360    2.1420   14.2720 H         1 <0>         0.0000
      9 H9         11.3990    3.7290   12.4570 H         1 <0>         0.0000
     10 H10        10.5850    5.1080   12.7760 H         1 <0>         0.0000
     11 H11         9.8370    0.8990   14.8050 H         1 <0>         0.0000
     12 H12         9.0430    2.3010   15.0730 H         1 <0>         0.0000
     13 H13         8.6220    3.8210   13.3130 H         1 <0>         0.0000
     14 H14         9.0990    3.4980   11.7850 H         1 <0>         0.0000
     15 H15        17.4490    5.1150    9.8930 H         1 <0>         0.0000
     16 H16        18.5740    5.6960   10.9230 H         1 <0>         0.0000
     17 H17        17.1450    7.2670   11.7550 H         1 <0>         0.0000
     18 H18        16.8950    7.3030   10.1410 H         1 <0>         0.0000
     19 C1          4.2500    1.3660   14.7400 C.ar      1 <0>         0.0000
     20 C2         15.8980    3.6650   13.5370 C.ar      1 <0>         0.0000
     21 C3          4.5100    2.1570   13.6220 C.ar      1 <0>         0.0000
     22 C4          5.2160    0.4670   15.1910 C.ar      1 <0>         0.0000
     23 C5         14.7450    3.7760   14.2950 C.ar      1 <0>         0.0000
     24 C6         14.0650    5.6540   12.9670 C.ar      1 <0>         0.0000
     25 C7         16.1460    4.5420   12.4790 C.ar      1 <0>         0.0000
     26 C8         15.2220    5.5450   12.1980 C.ar      1 <0>         0.0000
     27 C9          5.7260    2.0530   12.9430 C.ar      1 <0>         0.0000
     28 C10         6.4270    0.3610   14.5120 C.ar      1 <0>         0.0000
     29 C11        13.8170    4.7630   14.0080 C.ar      1 <0>         0.0000
     30 C12         6.6950    1.1590   13.4030 C.ar      1 <0>         0.0000
     31 C13        11.1180    2.5730   14.8180 C.3       1 <0>         0.0000
     32 C14        10.6770    4.1410   13.0130 C.3       1 <0>         0.0000
     33 C15         9.7720    1.8630   14.5470 C.3       1 <0>         0.0000
     34 C16         9.3420    3.4130   12.7510 C.3       1 <0>         0.0000
     35 C17        17.6070    5.4640   10.8160 C.3       1 <0>         0.0000
     36 C18        16.8010    6.7510   10.9700 C.3       1 <0>         0.0000
     37 N1         11.0170    4.0090   14.4520 N.pl3     1 <0>         0.0000
     38 N2          9.4910    1.9810   13.1010 N.pl3     1 <0>         0.0000
     39 O1         11.9410    6.3550   14.9780 O.2       1 <0>         0.0000
     40 O2         12.6970    4.5390   16.3800 O.2       1 <0>         0.0000
     41 O3          8.6690   -0.4090   12.6430 O.2       1 <0>         0.0000
     42 O4          7.9560    1.3580   11.1040 O.2       1 <0>         0.0000
     43 O5         17.3000    4.3860   11.7590 O.3       1 <0>         0.0000
     44 O6         15.4140    6.4340   11.1780 O.3       1 <0>         0.0000
     45 F1          5.9760    2.8280   11.8590 F         1 <0>         0.0000
     46 F2          7.3600   -0.5060   14.9430 F         1 <0>         0.0000
     47 S1         12.3620    4.9190   14.9800 S.o2      1 <0>         0.0000
     48 S2          8.2290    1.0110   12.5350 S.o2      1 <0>         0.0000
@<TRIPOS>BOND
     1    1   19 1
     2    2   20 1
     3    3   21 1
     4    4   22 1
     5    5   23 1
     6    6   24 1
     7    7   31 1
     8    8   31 1
     9    9   32 1
    10   10   32 1
    11   11   33 1
    12   12   33 1
    13   13   34 1
    14   14   34 1
    15   15   35 1
    16   16   35 1
    17   17   36 1
    18   18   36 1
    19   19   21 ar
    20   19   22 ar
    21   20   23 ar
    22   20   25 ar
    23   21   27 ar
    24   22   28 ar
    25   23   29 ar
    26   24   26 ar
    27   24   29 ar
    28   25   26 ar
    29   25   43 1
    30   26   44 1
    31   27   30 ar
    32   27   45 1
    33   28   30 ar
    34   28   46 1
    35   29   47 1
    36   30   48 1
    37   31   33 1
    38   31   37 1
    39   32   34 1
    40   32   37 1
    41   33   38 1
    42   34   38 1
    43   35   36 1
    44   35   43 1
    45   36   44 1
    46   37   47 1
    47   38   48 1
    48   39   47 2
    49   40   47 2
    50   41   48 2
    51   42   48 2
