@<TRIPOS>MOLECULE
****
   37    40     0     0     0
SMALL
NO_CHARGES

@<TRIPOS>ATOM
      1 H1          4.0120   -0.0290   17.8270 H         1 <0>         0.0000
      2 H2          2.2130    1.1680   16.8090 H         1 <0>         0.0000
      3 H3          5.7520   -0.9440   16.4850 H         1 <0>         0.0000
      4 H4          2.1670    1.4870   14.4420 H         1 <0>         0.0000
      5 H5         11.2670    5.3020   13.9690 H         1 <0>         0.0000
      6 H6          9.6090   -0.0080   16.3690 H         1 <0>         0.0000
      7 H7         13.2930    5.9460   15.3380 H         1 <0>         0.0000
      8 H8         13.1760    5.4080   16.8760 H         1 <0>         0.0000
      9 H9         14.1410    4.6330   15.8100 H         1 <0>         0.0000
     10 H10         7.9020    3.6800   12.0780 H         1 <0>         0.0000
     11 H11         8.4520    4.9890   12.8840 H         1 <0>         0.0000
     12 H12         9.4240    4.2140   11.8240 H         1 <0>         0.0000
     13 H13         6.3270   -1.8250   14.1330 H         1 <0>         0.0000
     14 H14         5.9780   -0.8360   12.8820 H         1 <0>         0.0000
     15 C1          3.9910    0.0900   16.8340 C.ar      1 <0>         0.0000
     16 C2          2.9450    0.7920   16.2410 C.ar      1 <0>         0.0000
     17 C3          5.0020   -0.4430   16.0530 C.ar      1 <0>         0.0000
     18 C4          2.9130    0.9730   14.8650 C.ar      1 <0>         0.0000
     19 C5         11.2240    4.4770   14.5320 C.2       1 <0>         0.0000
     20 C6          9.0630    0.3350   15.6050 C.2       1 <0>         0.0000
     21 C7          9.4000    1.5470   15.0130 C.2       1 <0>         0.0000
     22 C8          4.9820   -0.2860   14.6600 C.ar      1 <0>         0.0000
     23 C9         10.2650    3.5200   14.3610 C.2       1 <0>         0.0000
     24 C10         8.6460    2.0360   13.9680 C.2       1 <0>         0.0000
     25 C11         3.9270    0.4330   14.0790 C.ar      1 <0>         0.0000
     26 C12        10.4060    2.4550   15.2590 C.2       1 <0>         0.0000
     27 C13        12.1050    4.2270   15.5130 C.2       1 <0>         0.0000
     28 C14         7.5690    1.2410   13.5550 C.2       1 <0>         0.0000
     29 C15        13.2820    5.1330   15.9200 C.3       1 <0>         0.0000
     30 C16         8.7030    4.0970   12.5070 C.3       1 <0>         0.0000
     31 C17         6.1570   -0.8770   13.8650 C.3       1 <0>         0.0000
     32 N1          8.0270   -0.3750   15.1720 N.2       1 <0>         0.0000
     33 N2          9.1950    3.2160   13.6020 N.pl3     1 <0>         0.0000
     34 N3          7.3110   -0.0060   14.2320 N.am      1 <0>         0.0000
     35 O1          6.8580    1.6090   12.6270 O.2       1 <0>         0.0000
     36 F1          3.8770    0.5900   12.7420 F         1 <0>         0.0000
     37 S1         11.7280    2.7710   16.2310 S.3       1 <0>         0.0000
@<TRIPOS>BOND
     1    1   15 1
     2    2   16 1
     3    3   17 1
     4    4   18 1
     5    5   19 1
     6    6   20 1
     7    7   29 1
     8    8   29 1
     9    9   29 1
    10   10   30 1
    11   11   30 1
    12   12   30 1
    13   13   31 1
    14   14   31 1
    15   15   16 ar
    16   15   17 ar
    17   16   18 ar
    18   17   22 ar
    19   18   25 ar
    20   19   23 1
    21   19   27 2
    22   20   21 1
    23   20   32 2
    24   21   24 2
    25   21   26 1
    26   22   25 ar
    27   22   31 1
    28   23   26 2
    29   23   33 1
    30   24   28 1
    31   24   33 1
    32   25   36 1
    33   26   37 1
    34   27   29 1
    35   27   37 1
    36   28   34 am
    37   28   35 2
    38   30   33 1
    39   31   34 1
    40   32   34 1
