@<TRIPOS>MOLECULE
****
   53    56     0     0     0
SMALL
NO_CHARGES

@<TRIPOS>ATOM
      1 H1         16.3460    3.0320   13.9240 H         1 <0>         0.0000
      2 H2         16.8150    4.4780   12.0700 H         1 <0>         0.0000
      3 H3          4.5470    0.1900   16.9240 H         1 <0>         0.0000
      4 H4         14.3000    3.1930   15.1010 H         1 <0>         0.0000
      5 H5          6.6530   -0.1570   15.8350 H         1 <0>         0.0000
      6 H6         13.1460    6.3190   12.6590 H         1 <0>         0.0000
      7 H7          5.1710    1.5450   12.3540 H         1 <0>         0.0000
      8 H8          8.5790    4.9290   12.1210 H         1 <0>         0.0000
      9 H9          8.5320    4.6220   13.7240 H         1 <0>         0.0000
     10 H10        10.7540    3.6330   12.2270 H         1 <0>         0.0000
     11 H11        10.7410    5.2080   12.6580 H         1 <0>         0.0000
     12 H12         7.2400    3.0600   12.6230 H         1 <0>         0.0000
     13 H13         8.4810    2.6800   11.6310 H         1 <0>         0.0000
     14 H14        11.3480    2.2730   15.3340 H         1 <0>         0.0000
     15 H15        11.1890    1.9750   13.7360 H         1 <0>         0.0000
     16 H16         9.3500    1.1240   15.2370 H         1 <0>         0.0000
     17 H17         8.8640    2.6820   15.3050 H         1 <0>         0.0000
     18 H18         1.6720    3.0490   15.3770 H         1 <0>         0.0000
     19 H19         0.5190    1.9070   15.5670 H         1 <0>         0.0000
     20 H20         1.2400    0.8410   13.5650 H         1 <0>         0.0000
     21 H21         0.8300    2.3900   13.2490 H         1 <0>         0.0000
     22 H22        14.6170    7.0840   10.9830 H         1 <0>         0.0000
     23 H23        16.1400    6.3010   10.7220 H         1 <0>         0.0000
     24 C1         15.6740    3.7200   13.6500 C.ar      1 <0>         0.0000
     25 C2         15.9600    4.5700   12.5800 C.ar      1 <0>         0.0000
     26 C3          4.6720    0.4730   15.9730 C.ar      1 <0>         0.0000
     27 C4         14.4820    3.8110   14.3360 C.ar      1 <0>         0.0000
     28 C5          5.9030    0.2810   15.3400 C.ar      1 <0>         0.0000
     29 C6         13.8190    5.6280   12.9220 C.ar      1 <0>         0.0000
     30 C7          5.0440    1.2710   13.3070 C.ar      1 <0>         0.0000
     31 C8         15.0290    5.5490   12.2380 C.ar      1 <0>         0.0000
     32 C9          3.6170    1.0610   15.2730 C.ar      1 <0>         0.0000
     33 C10         3.8080    1.4630   13.9370 C.ar      1 <0>         0.0000
     34 C11        13.5370    4.7510   13.9720 C.ar      1 <0>         0.0000
     35 C12         6.0930    0.6980   14.0150 C.ar      1 <0>         0.0000
     36 C13         8.8680    4.2970   12.8400 C.3       1 <0>         0.0000
     37 C14        10.3960    4.2970   12.8840 C.3       1 <0>         0.0000
     38 C15         8.2320    2.9450   12.5630 C.3       1 <0>         0.0000
     39 C16        10.8030    2.4650   14.5180 C.3       1 <0>         0.0000
     40 C17         9.3390    1.9980   14.7510 C.3       1 <0>         0.0000
     41 C18         1.4380    2.0900   15.2160 C.3       1 <0>         0.0000
     42 C19         1.4820    1.7980   13.7240 C.3       1 <0>         0.0000
     43 N1         10.8160    3.9280   14.2440 N.pl3     1 <0>         0.0000
     44 N2          8.6090    1.8270   13.4630 N.pl3     1 <0>         0.0000
     45 N3         15.2830    6.3800   11.2310 N.pl3     1 <0>         0.0000
     46 O1         12.3080    4.3590   16.2710 O.2       1 <0>         0.0000
     47 O2         11.5070    6.2230   14.9190 O.2       1 <0>         0.0000
     48 O3          8.2870   -0.7090   13.9050 O.2       1 <0>         0.0000
     49 O4          7.4940    0.2890   11.7850 O.2       1 <0>         0.0000
     50 O5          2.4140    1.2190   15.9050 O.3       1 <0>         0.0000
     51 O6          2.8080    2.0470   13.2240 O.3       1 <0>         0.0000
     52 S1         12.0250    4.8250   14.8670 S.o2      1 <0>         0.0000
     53 S2          7.6570    0.5000   13.2610 S.o2      1 <0>         0.0000
@<TRIPOS>BOND
     1    1   24 1
     2    2   25 1
     3    3   26 1
     4    4   27 1
     5    5   28 1
     6    6   29 1
     7    7   30 1
     8    8   36 1
     9    9   36 1
    10   10   37 1
    11   11   37 1
    12   12   38 1
    13   13   38 1
    14   14   39 1
    15   15   39 1
    16   16   40 1
    17   17   40 1
    18   18   41 1
    19   19   41 1
    20   20   42 1
    21   21   42 1
    22   22   45 1
    23   23   45 1
    24   24   25 ar
    25   24   27 ar
    26   25   31 ar
    27   26   28 ar
    28   26   32 ar
    29   27   34 ar
    30   28   35 ar
    31   29   31 ar
    32   29   34 ar
    33   30   33 ar
    34   30   35 ar
    35   31   45 1
    36   32   33 ar
    37   32   50 1
    38   33   51 1
    39   34   52 1
    40   35   53 1
    41   36   37 1
    42   36   38 1
    43   37   43 1
    44   38   44 1
    45   39   40 1
    46   39   43 1
    47   40   44 1
    48   41   42 1
    49   41   50 1
    50   42   51 1
    51   43   52 1
    52   44   53 1
    53   46   52 2
    54   47   52 2
    55   48   53 2
    56   49   53 2
