@<TRIPOS>MOLECULE
****
   42    45     0     0     0
SMALL
NO_CHARGES

@<TRIPOS>ATOM
      1 H1         18.9770   -5.8990   32.8130 H         1 <0>         0.0000
      2 H2         19.9070   -7.1300   31.0080 H         1 <0>         0.0000
      3 H3         19.5860   -6.4840   35.0660 H         1 <0>         0.0000
      4 H4         22.0270   -9.5270   33.6440 H         1 <0>         0.0000
      5 H5         16.6790  -15.3870   31.1570 H         1 <0>         0.0000
      6 H6         18.0790  -10.0880   28.5690 H         1 <0>         0.0000
      7 H7         20.1250  -13.6210   32.7910 H         1 <0>         0.0000
      8 H8         18.6460  -14.2050   33.1630 H         1 <0>         0.0000
      9 H9         19.5710  -14.9710   32.0570 H         1 <0>         0.0000
     10 H10        14.5820  -14.9830   26.9420 H         1 <0>         0.0000
     11 H11        15.4860  -16.2710   27.3790 H         1 <0>         0.0000
     12 H12        13.8690  -16.4260   27.2130 H         1 <0>         0.0000
     13 H13        21.8670   -8.5940   30.2210 H         1 <0>         0.0000
     14 H14        22.3990   -9.7600   31.2340 H         1 <0>         0.0000
     15 H15        21.7790   -9.1490   35.9260 H         1 <0>         0.0000
     16 H16        20.7890   -7.8620   36.5290 H         1 <0>         0.0000
     17 C1         19.6090   -6.6540   32.9890 C.ar      1 <0>         0.0000
     18 C2         20.1530   -7.3730   31.9470 C.ar      1 <0>         0.0000
     19 C3         19.9590   -7.0020   34.2960 C.ar      1 <0>         0.0000
     20 C4         21.3860   -8.7790   33.4710 C.ar      1 <0>         0.0000
     21 C5         16.6660  -14.5780   30.5690 C.2       1 <0>         0.0000
     22 C6         18.6700  -10.4220   29.3030 C.2       1 <0>         0.0000
     23 C7         18.3790  -11.6220   29.9090 C.2       1 <0>         0.0000
     24 C8         21.0360   -8.4290   32.1650 C.ar      1 <0>         0.0000
     25 C9         17.6000  -13.5910   30.6580 C.2       1 <0>         0.0000
     26 C10        20.8240   -8.0650   34.5310 C.ar      1 <0>         0.0000
     27 C11        17.3790  -12.5590   29.7280 C.2       1 <0>         0.0000
     28 C12        19.2040  -12.0680   30.9250 C.2       1 <0>         0.0000
     29 C13        20.2950  -11.2560   31.2500 C.2       1 <0>         0.0000
     30 C14        15.7250  -14.3800   29.6290 C.2       1 <0>         0.0000
     31 C15        19.3130  -14.0790   32.4290 C.3       1 <0>         0.0000
     32 C16        14.6050  -15.8130   27.4990 C.3       1 <0>         0.0000
     33 C17        21.6070   -9.2130   30.9630 C.3       1 <0>         0.0000
     34 N1         19.7140   -9.7030   29.6720 N.pl3     1 <0>         0.0000
     35 N2         20.4790  -10.0770   30.5620 N.am      1 <0>         0.0000
     36 N3         18.7070  -13.2370   31.3390 N.pl3     1 <0>         0.0000
     37 N4         21.1570   -8.3840   35.7590 N.pl3     1 <0>         0.0000
     38 O1         14.4250  -16.6470   30.0310 O.3       1 <0>         0.0000
     39 O2         21.1150  -11.5150   32.1250 O.2       1 <0>         0.0000
     40 S1         15.9830  -12.9620   28.8290 S.3       1 <0>         0.0000
     41 S2         14.3880  -15.3850   29.2100 S.3       1 <0>         0.0000
     42 H17        19.8886   -8.8302   29.2161 H         1 <0>         0.0000
@<TRIPOS>BOND
     1    1   17 1
     2    2   18 1
     3    3   19 1
     4    4   20 1
     5    5   21 1
     6    6   22 1
     7    7   31 1
     8    8   31 1
     9    9   31 1
    10   10   32 1
    11   11   32 1
    12   12   32 1
    13   13   33 1
    14   14   33 1
    15   15   37 1
    16   16   37 1
    17   17   18 ar
    18   17   19 ar
    19   18   24 ar
    20   19   26 ar
    21   20   24 ar
    22   20   26 ar
    23   21   25 1
    24   21   30 2
    25   22   23 2
    26   22   34 1
    27   23   27 1
    28   23   28 1
    29   24   33 1
    30   25   27 2
    31   25   36 1
    32   26   37 1
    33   27   40 1
    34   28   29 1
    35   28   36 2
    36   29   35 am
    37   29   39 2
    38   30   40 1
    39   30   41 1
    40   31   36 1
    41   32   41 1
    42   33   35 1
    43   34   35 1
    44   38   41 1
    45   34   42 1
