@<TRIPOS>MOLECULE
****
   64    67     0     0     0
SMALL
NO_CHARGES

@<TRIPOS>ATOM
      1 H1         10.5864    7.2015   11.8129 H         1 <0>         0.0000
      2 H2          5.5290    2.8510   10.6530 H         1 <0>         0.0000
      3 H3          7.6600   -0.4990    9.4660 H         1 <0>         0.0000
      4 H4          2.1960    2.3960   13.0240 H         1 <0>         0.0000
      5 H5         14.4700    6.3340   10.8420 H         1 <0>         0.0000
      6 H6          3.4930    1.5220   11.2380 H         1 <0>         0.0000
      7 H7         12.9660    7.6720   12.1000 H         1 <0>         0.0000
      8 H8          2.6900    1.7720   15.2600 H         1 <0>         0.0000
      9 H9         15.3560    4.3420   11.7850 H         1 <0>         0.0000
     10 H10         9.6040    7.9830   15.8420 H         1 <0>         0.0000
     11 H11         9.0250    2.3020    7.4650 H         1 <0>         0.0000
     12 H12         9.6730    1.0630    8.3080 H         1 <0>         0.0000
     13 H13         8.5660    0.7680    7.1450 H         1 <0>         0.0000
     14 H14         6.4350    8.4190   13.9610 H         1 <0>         0.0000
     15 H15         6.8550    7.6700   15.3500 H         1 <0>         0.0000
     16 H16         7.2060    9.2500   15.1360 H         1 <0>         0.0000
     17 H17         8.3520    6.9850    8.6150 H         1 <0>         0.0000
     18 H18         7.3640    8.1530    9.1860 H         1 <0>         0.0000
     19 H19         5.6540    6.6720    9.5380 H         1 <0>         0.0000
     20 H20         6.2510    6.2500    8.0790 H         1 <0>         0.0000
     21 H21         8.8090    6.2480   10.7900 H         1 <0>         0.0000
     22 H22         6.5470    4.7420   10.5120 H         1 <0>         0.0000
     23 C1         10.0340    7.4430   12.7090 C.3       1 <0>         0.0000
     24 C2          6.3350    0.8620   10.4050 C.3       1 <0>         0.0000
     25 C3          6.1830    2.2580   10.1830 C.2       1 <0>         0.0000
     26 C4          7.3260    0.4390    9.5550 C.2       1 <0>         0.0000
     27 C5          2.9600    1.7800   13.2150 C.ar      1 <0>         0.0000
     28 C6         14.1970    6.0500   11.7610 C.ar      1 <0>         0.0000
     29 C7          3.7250    1.2900   12.1830 C.ar      1 <0>         0.0000
     30 C8         13.3100    6.8140   12.4820 C.ar      1 <0>         0.0000
     31 C9          3.2470    1.4220   14.5070 C.ar      1 <0>         0.0000
     32 C10        14.7070    4.8970   12.3050 C.ar      1 <0>         0.0000
     33 C11         9.5410    7.8510   14.8530 C.2       1 <0>         0.0000
     34 C12        10.5760    7.4890   14.0210 C.2       1 <0>         0.0000
     35 C13         8.6880    7.7560   12.7590 C.2       1 <0>         0.0000
     36 C14         4.8080    0.4830   12.4430 C.ar      1 <0>         0.0000
     37 C15        12.8940    6.4010   13.7280 C.ar      1 <0>         0.0000
     38 C16         4.3040    0.5800   14.7650 C.ar      1 <0>         0.0000
     39 C17        14.3230    4.5060   13.5670 C.ar      1 <0>         0.0000
     40 C18         5.0960    0.1020   13.7390 C.ar      1 <0>         0.0000
     41 C19        13.4140    5.2470   14.2910 C.ar      1 <0>         0.0000
     42 C20         7.0810    2.6670    9.2160 C.2       1 <0>         0.0000
     43 C21         5.6110   -0.0600   11.2950 C.2       1 <0>         0.0000
     44 C22        11.9480    7.2670   14.5070 C.2       1 <0>         0.0000
     45 C23         7.7640    7.8190   11.6320 C.2       1 <0>         0.0000
     46 C24         7.2470    4.0280    8.6920 C.2       1 <0>         0.0000
     47 C25         8.8440    1.4040    7.8650 C.3       1 <0>         0.0000
     48 C26         7.1260    8.3630   14.6820 C.3       1 <0>         0.0000
     49 C27         7.6430    7.1980    9.2870 C.3       1 <0>         0.0000
     50 C28         6.4470    6.2980    9.0580 C.3       1 <0>         0.0000
     51 N1          7.7770    1.5180    8.8520 N.pl3     1 <0>         0.0000
     52 N2          8.4120    7.9990   14.0970 N.pl3     1 <0>         0.0000
     53 N3          8.1630    6.9900   10.6130 N.am      1 <0>         0.0000
     54 N4          6.7270    4.9730    9.5560 N.am      1 <0>         0.0000
     55 O1          5.5730   -1.2650   11.0720 O.2       1 <0>         0.0000
     56 O2         12.3690    7.8210   15.5130 O.2       1 <0>         0.0000
     57 O3          6.7930    8.5630   11.5440 O.2       1 <0>         0.0000
     58 O4          7.7240    4.3190    7.5990 O.2       1 <0>         0.0000
     59 Cl1         4.6270    0.1400   16.3870 Cl        1 <0>         0.0000
     60 Cl2        14.9800    3.0640   14.2240 Cl        1 <0>         0.0000
     61 Cl3         6.4190   -0.9510   14.1030 Cl        1 <0>         0.0000
     62 Cl4        12.9510    4.7090   15.8690 Cl        1 <0>         0.0000
     63 H23        10.0340    7.4430   12.7090 H         1 <0>         0.0000
     64 H24         6.3350    0.8620   10.4050 H         1 <0>         0.0000
@<TRIPOS>BOND
     1    1   23 1
     2    2   25 1
     3    3   26 1
     4    4   27 1
     5    5   28 1
     6    6   29 1
     7    7   30 1
     8    8   31 1
     9    9   32 1
    10   10   33 1
    11   11   47 1
    12   12   47 1
    13   13   47 1
    14   14   48 1
    15   15   48 1
    16   16   48 1
    17   17   49 1
    18   18   49 1
    19   19   50 1
    20   20   50 1
    21   21   53 1
    22   22   54 1
    23   23   34 1
    24   23   35 1
    25   24   25 1
    26   24   26 1
    27   24   43 1
    28   25   42 2
    29   26   51 2
    30   27   29 ar
    31   27   31 ar
    32   28   30 ar
    33   28   32 ar
    34   29   36 ar
    35   30   37 ar
    36   31   38 ar
    37   32   39 ar
    38   33   34 2
    39   33   52 1
    40   34   44 1
    41   35   45 1
    42   35   52 2
    43   36   40 ar
    44   36   43 1
    45   37   41 ar
    46   37   44 1
    47   38   40 ar
    48   38   59 1
    49   39   41 ar
    50   39   60 1
    51   40   61 1
    52   41   62 1
    53   42   46 1
    54   42   51 1
    55   43   55 2
    56   44   56 2
    57   45   53 am
    58   45   57 2
    59   46   54 am
    60   46   58 2
    61   47   51 1
    62   48   52 1
    63   49   50 1
    64   49   53 1
    65   50   54 1
    66   23   63 1
    67   24   64 1
