@<TRIPOS>MOLECULE
****
   41    43     0     0     0
SMALL
NO_CHARGES

@<TRIPOS>ATOM
      1 H1         92.7440   89.1840  -41.7260 H         1 <0>         0.0000
      2 H2         94.8080   90.7170  -41.6340 H         1 <0>         0.0000
      3 H3         89.1610   92.3990  -47.0680 H         1 <0>         0.0000
      4 H4         92.9430   91.1110  -45.9390 H         1 <0>         0.0000
      5 H5         89.0910   90.6880  -48.7490 H         1 <0>         0.0000
      6 H6         92.8730   89.4080  -47.6290 H         1 <0>         0.0000
      7 H7         90.9020   90.3630  -43.0700 H         1 <0>         0.0000
      8 H8         94.2470   92.8860  -42.8890 H         1 <0>         0.0000
      9 H9         90.0800   94.5870  -46.3290 H         1 <0>         0.0000
     10 H10        89.7320   98.4130  -45.0740 H         1 <0>         0.0000
     11 H11        90.4450   99.8730  -45.2280 H         1 <0>         0.0000
     12 H12        91.0830   98.5700  -45.9780 H         1 <0>         0.0000
     13 H13        93.2500   99.1330  -43.3340 H         1 <0>         0.0000
     14 H14        93.1570   98.9980  -44.9580 H         1 <0>         0.0000
     15 H15        92.5190  100.3020  -44.2090 H         1 <0>         0.0000
     16 H16        89.7820   96.4620  -43.2900 H         1 <0>         0.0000
     17 H17        89.8890   96.7470  -44.8940 H         1 <0>         0.0000
     18 H18        91.9810   97.0020  -42.9450 H         1 <0>         0.0000
     19 H19        92.3270   96.9040  -44.5380 H         1 <0>         0.0000
     20 C1         92.8140   90.0910  -42.1410 C.2       1 <0>         0.0000
     21 C2         93.9410   90.9280  -42.0850 C.2       1 <0>         0.0000
     22 C3         89.9320   91.7710  -47.1760 C.ar      1 <0>         0.0000
     23 C4         92.1360   91.0190  -46.5220 C.ar      1 <0>         0.0000
     24 C5         89.8940   90.7770  -48.1600 C.ar      1 <0>         0.0000
     25 C6         92.0970   90.0280  -47.5090 C.ar      1 <0>         0.0000
     26 C7         91.8110   90.7260  -42.8650 C.2       1 <0>         0.0000
     27 C8         93.6400   92.1010  -42.7670 C.2       1 <0>         0.0000
     28 C9         91.0450   91.8840  -46.3480 C.ar      1 <0>         0.0000
     29 C10        90.9780   89.9080  -48.3210 C.ar      1 <0>         0.0000
     30 C11        90.5380   94.2620  -45.5020 C.2       1 <0>         0.0000
     31 C12        91.0740   93.0000  -45.2980 C.2       1 <0>         0.0000
     32 C13        91.6350   93.0120  -43.9920 C.cat     1 <0>         0.0000
     33 C14        90.6070   98.8890  -45.1580 C.3       1 <0>         0.0000
     34 C15        92.6840   99.3180  -44.1370 C.3       1 <0>         0.0000
     35 C16        90.3740   96.3960  -44.0930 C.3       1 <0>         0.0000
     36 C17        91.6420   97.1880  -43.8670 C.3       1 <0>         0.0000
     37 N1         91.4300   94.2490  -43.4150 N.2       1 <0>         0.0000
     38 N2         92.3230   91.9820  -43.2550 N.pl3     1 <0>         0.0000
     39 N3         90.7630   95.0070  -44.3140 N.pl3     1 <0>         0.0000
     40 N4         91.4090   98.6190  -44.0060 N.3       1 <0>         0.0000
     41 F1         90.9280   88.9650  -49.2660 F         1 <0>         0.0000
@<TRIPOS>BOND
     1    1   20 1
     2    2   21 1
     3    3   22 1
     4    4   23 1
     5    5   24 1
     6    6   25 1
     7    7   26 1
     8    8   27 1
     9    9   30 1
    10   10   33 1
    11   11   33 1
    12   12   33 1
    13   13   34 1
    14   14   34 1
    15   15   34 1
    16   16   35 1
    17   17   35 1
    18   18   36 1
    19   19   36 1
    20   20   21 1
    21   20   26 2
    22   21   27 2
    23   22   24 ar
    24   22   28 ar
    25   23   25 ar
    26   23   28 ar
    27   24   29 ar
    28   25   29 ar
    29   26   38 1
    30   27   38 1
    31   28   31 1
    32   29   41 1
    33   30   31 2
    34   30   39 1
    35   31   32 1
    36   32   37 1
    37   32   38 1
    38   33   40 1
    39   34   40 1
    40   35   36 1
    41   35   39 1
    42   36   40 1
    43   37   39 2
