@<TRIPOS>MOLECULE
****
   69    70     0     0     0
SMALL
NO_CHARGES

@<TRIPOS>ATOM
      1 H1         92.1570   92.3640  -43.6560 H         1 <0>         0.0000
      2 H2         90.6300   94.6490  -46.7990 H         1 <0>         0.0000
      3 H3         90.2070  100.0860  -43.0930 H         1 <0>         0.0000
      4 H4         89.3950  101.1280  -44.0530 H         1 <0>         0.0000
      5 H5         93.3210  100.0960  -44.8600 H         1 <0>         0.0000
      6 H6         92.5640   99.5190  -43.5330 H         1 <0>         0.0000
      7 H7         88.7180   98.9050  -44.5630 H         1 <0>         0.0000
      8 H8         89.5130   99.5310  -45.8450 H         1 <0>         0.0000
      9 H9         91.8950   98.8300  -46.2550 H         1 <0>         0.0000
     10 H10        92.6170   97.8270  -45.1870 H         1 <0>         0.0000
     11 H11        91.2630  101.1210  -45.5750 H         1 <0>         0.0000
     12 H12        94.8930  103.3590  -43.1700 H         1 <0>         0.0000
     13 H13        94.0030  103.5590  -44.5250 H         1 <0>         0.0000
     14 H14        93.4590  104.1390  -43.0990 H         1 <0>         0.0000
     15 H15        89.9340  104.6340  -45.1900 H         1 <0>         0.0000
     16 H16        89.8120  103.0390  -45.5190 H         1 <0>         0.0000
     17 H17        89.4720  103.5910  -44.0210 H         1 <0>         0.0000
     18 H18        88.9530   93.8760  -53.1350 H         1 <0>         0.0000
     19 H19        90.3270   94.1310  -52.2910 H         1 <0>         0.0000
     20 H20        90.2300   92.8780  -53.3340 H         1 <0>         0.0000
     21 H21        87.6240   93.8010  -50.9940 H         1 <0>         0.0000
     22 H22        88.1710   92.8840  -49.7570 H         1 <0>         0.0000
     23 H23        89.0330   94.1770  -50.2600 H         1 <0>         0.0000
     24 H24        87.4750   91.8670  -52.5300 H         1 <0>         0.0000
     25 H25        88.7890   90.9530  -52.8520 H         1 <0>         0.0000
     26 H26        88.0260   90.8080  -51.4160 H         1 <0>         0.0000
     27 H27        92.7750   90.0310  -48.0570 H         1 <0>         0.0000
     28 H28        91.1930   89.6410  -47.9420 H         1 <0>         0.0000
     29 H29        90.4280   97.0170  -46.4870 H         1 <0>         0.0000
     30 H30        89.1600   96.8870  -45.4660 H         1 <0>         0.0000
     31 H31        93.7640  101.3340  -43.7120 H         1 <0>         0.0000
     32 H32        93.2200  101.9140  -42.2850 H         1 <0>         0.0000
     33 H33        92.0830  103.6550  -45.2310 H         1 <0>         0.0000
     34 H34        91.7430  104.2080  -43.7330 H         1 <0>         0.0000
     35 H35        92.3830   91.2290  -49.9810 H         1 <0>         0.0000
     36 C1         91.6110   94.3260  -43.1650 C.ar      1 <0>         0.0000
     37 C2         91.5040   92.3070  -46.3020 C.1       1 <0>         0.0000
     38 C3         91.6520   91.4460  -47.1170 C.1       1 <0>         0.0000
     39 C4         91.7760   93.2220  -44.0020 C.ar      1 <0>         0.0000
     40 C5         90.8820   94.5670  -45.8350 C.ar      1 <0>         0.0000
     41 C6         91.0980   95.5530  -43.6160 C.ar      1 <0>         0.0000
     42 C7         91.3920   93.3530  -45.3400 C.ar      1 <0>         0.0000
     43 C8         90.7290   95.6540  -44.9800 C.ar      1 <0>         0.0000
     44 C9         90.3370   91.1370  -49.8940 C.2       1 <0>         0.0000
     45 C10        90.0730  100.3930  -44.0350 C.3       1 <0>         0.0000
     46 C11        92.4480   99.7750  -44.4930 C.3       1 <0>         0.0000
     47 C12        89.6020   99.2340  -44.8940 C.3       1 <0>         0.0000
     48 C13        91.9640   98.5780  -45.2900 C.3       1 <0>         0.0000
     49 C14        91.3910  100.8890  -44.6110 C.3       1 <0>         0.0000
     50 C15        93.9640  103.3960  -43.5390 C.3       1 <0>         0.0000
     51 C16        90.0580  103.7120  -44.8220 C.3       1 <0>         0.0000
     52 C17        89.7220   93.4330  -52.6750 C.3       1 <0>         0.0000
     53 C18        88.4400   93.4270  -50.5530 C.3       1 <0>         0.0000
     54 C19        88.2930   91.4460  -52.1380 C.3       1 <0>         0.0000
     55 C20        91.8410   90.3840  -48.1100 C.3       1 <0>         0.0000
     56 C21        90.1570   96.9320  -45.5280 C.3       1 <0>         0.0000
     57 C22        93.2610  102.0780  -43.2710 C.3       1 <0>         0.0000
     58 C23        91.5150  103.5180  -44.4200 C.3       1 <0>         0.0000
     59 C24        89.1960   92.5360  -51.5480 C.3       1 <0>         0.0000
     60 N1         91.6040   90.9580  -49.4160 N.am      1 <0>         0.0000
     61 N2         90.6220   98.1370  -44.7970 N.4       1 <0>         0.0000
     62 N3         91.8380  102.1460  -43.8410 N.4       1 <0>         0.0000
     63 O1         90.9480   96.6360  -42.8080 O.3       1 <0>         0.0000
     64 O2         89.3380   90.6620  -49.3760 O.2       1 <0>         0.0000
     65 O3         90.3970   91.9600  -50.9680 O.3       1 <0>         0.0000
     66 H36        91.8897   94.2330  -42.1257 H         1 <0>         0.0000
     67 H37        90.7163   97.8939  -43.8316 H         1 <0>         0.0000
     68 H38        91.2698  102.1131  -43.0188 H         1 <0>         0.0000
     69 H39        90.5870   97.3579  -43.3090 H         1 <0>         0.0000
@<TRIPOS>BOND
     1    1   39 1
     2    2   40 1
     3    3   45 1
     4    4   45 1
     5    5   46 1
     6    6   46 1
     7    7   47 1
     8    8   47 1
     9    9   48 1
    10   10   48 1
    11   11   49 1
    12   12   50 1
    13   13   50 1
    14   14   50 1
    15   15   51 1
    16   16   51 1
    17   17   51 1
    18   18   52 1
    19   19   52 1
    20   20   52 1
    21   21   53 1
    22   22   53 1
    23   23   53 1
    24   24   54 1
    25   25   54 1
    26   26   54 1
    27   27   55 1
    28   28   55 1
    29   29   56 1
    30   30   56 1
    31   31   57 1
    32   32   57 1
    33   33   58 1
    34   34   58 1
    35   35   60 1
    36   36   39 ar
    37   36   41 ar
    38   37   38 3
    39   37   42 1
    40   38   55 1
    41   39   42 ar
    42   40   42 ar
    43   40   43 ar
    44   41   43 ar
    45   41   63 1
    46   43   56 1
    47   44   60 am
    48   44   64 2
    49   44   65 1
    50   45   47 1
    51   45   49 1
    52   46   48 1
    53   46   49 1
    54   47   61 1
    55   48   61 1
    56   49   62 1
    57   50   57 1
    58   51   58 1
    59   52   59 1
    60   53   59 1
    61   54   59 1
    62   55   60 1
    63   56   61 1
    64   57   62 1
    65   58   62 1
    66   59   65 1
    67   36   66 1
    68   61   67 1
    69   62   68 1
    70   63   69 1
