@<TRIPOS>MOLECULE
****
   37    39     0     0     0
SMALL
NO_CHARGES

@<TRIPOS>ATOM
      1 H1        -14.5930   17.7320   43.4180 H         1 <0>         0.0000
      2 H2        -14.4030   17.0290   41.1200 H         1 <0>         0.0000
      3 H3        -15.7640   16.3580   45.0270 H         1 <0>         0.0000
      4 H4        -15.4180   14.9570   40.4130 H         1 <0>         0.0000
      5 H5        -16.7680   14.2960   44.3390 H         1 <0>         0.0000
      6 H6        -13.6020   12.8720   41.9250 H         1 <0>         0.0000
      7 H7        -18.7730   13.3560   42.7730 H         1 <0>         0.0000
      8 H8        -15.2420   10.6450   38.8610 H         1 <0>         0.0000
      9 H9         -8.7270   12.7040   40.6850 H         1 <0>         0.0000
     10 H10        -8.9030   14.3150   40.8860 H         1 <0>         0.0000
     11 H11        -8.8560   13.3300   42.1880 H         1 <0>         0.0000
     12 H12       -12.4060   14.0150   41.8100 H         1 <0>         0.0000
     13 H13       -11.2040   14.1650   42.9050 H         1 <0>         0.0000
     14 H14       -11.2510   15.1500   41.6030 H         1 <0>         0.0000
     15 H15       -12.7500   10.7610   38.5020 H         1 <0>         0.0000
     16 H16       -17.1710   10.2000   40.6780 H         1 <0>         0.0000
     17 C1        -15.0050   16.8690   43.1270 C.ar      1 <0>         0.0000
     18 C2        -14.8960   16.4610   41.7790 C.ar      1 <0>         0.0000
     19 C3        -15.6960   16.0630   44.0740 C.ar      1 <0>         0.0000
     20 C4        -15.4870   15.2460   41.3680 C.ar      1 <0>         0.0000
     21 C5        -16.2800   14.8590   43.6720 C.ar      1 <0>         0.0000
     22 C6        -13.7000   12.3210   41.0960 C.2       1 <0>         0.0000
     23 C7        -18.1310   12.7850   42.2610 C.2       1 <0>         0.0000
     24 C8        -14.5920   11.1230   39.4520 C.2       1 <0>         0.0000
     25 C9        -16.1830   14.4280   42.3110 C.ar      1 <0>         0.0000
     26 C10       -14.9110   11.8230   40.5940 C.2       1 <0>         0.0000
     27 C11       -16.8370   13.1240   41.9330 C.2       1 <0>         0.0000
     28 C12       -16.2930   12.0050   41.1940 C.2       1 <0>         0.0000
     29 C13       -12.6640   11.9330   40.2690 C.2       1 <0>         0.0000
     30 C14       -11.1760   12.2240   40.4120 C.2       1 <0>         0.0000
     31 C15        -9.1600   13.4150   41.2390 C.3       1 <0>         0.0000
     32 C16       -11.4360   14.2250   41.9340 C.3       1 <0>         0.0000
     33 N1        -18.3840   11.5640   41.7800 N.2       1 <0>         0.0000
     34 N2        -13.2440   11.1880   39.2590 N.pl3     1 <0>         0.0000
     35 N3        -17.2510   11.0900   41.1270 N.pl3     1 <0>         0.0000
     36 N4        -10.6260   13.2630   41.1770 N.am      1 <0>         0.0000
     37 O1        -10.4080   11.4850   39.8100 O.2       1 <0>         0.0000
@<TRIPOS>BOND
     1    1   17 1
     2    2   18 1
     3    3   19 1
     4    4   20 1
     5    5   21 1
     6    6   22 1
     7    7   23 1
     8    8   24 1
     9    9   31 1
    10   10   31 1
    11   11   31 1
    12   12   32 1
    13   13   32 1
    14   14   32 1
    15   15   34 1
    16   16   35 1
    17   17   18 ar
    18   17   19 ar
    19   18   20 ar
    20   19   21 ar
    21   20   25 ar
    22   21   25 ar
    23   22   26 1
    24   22   29 2
    25   23   27 2
    26   23   33 1
    27   24   26 2
    28   24   34 1
    29   25   27 1
    30   26   28 1
    31   27   28 1
    32   28   35 2
    33   29   30 1
    34   29   34 1
    35   30   36 am
    36   30   37 2
    37   31   36 1
    38   32   36 1
    39   33   35 1
