@<TRIPOS>MOLECULE
****
   49    50     0     0     0
SMALL
NO_CHARGES

@<TRIPOS>ATOM
      1 H1         18.2890   40.3790   42.9890 H         1 <0>         0.0000
      2 H2         20.7970   37.4850   44.5460 H         1 <0>         0.0000
      3 H3         15.7150   40.2740   45.0480 H         1 <0>         0.0000
      4 H4         15.7360   39.5520   42.2420 H         1 <0>         0.0000
      5 H5         13.8770   41.2820   42.7430 H         1 <0>         0.0000
      6 H6         13.6070   40.4210   44.1040 H         1 <0>         0.0000
      7 H7         10.5240   39.4630   44.9290 H         1 <0>         0.0000
      8 H8          9.7800   38.0670   44.5210 H         1 <0>         0.0000
      9 H9         11.0740   37.9730   46.6060 H         1 <0>         0.0000
     10 H10        11.4140   36.7920   45.5310 H         1 <0>         0.0000
     11 H11        12.9250   39.1760   45.8300 H         1 <0>         0.0000
     12 H12        13.2790   37.9450   44.8170 H         1 <0>         0.0000
     13 H13        11.0270   39.5890   41.6290 H         1 <0>         0.0000
     14 H14        13.8200   36.6900   46.8390 H         1 <0>         0.0000
     15 H15        13.0400   38.1800   48.5040 H         1 <0>         0.0000
     16 H16        14.6480   37.9480   48.6640 H         1 <0>         0.0000
     17 H17        14.0850   39.3200   47.9810 H         1 <0>         0.0000
     18 H18        22.6760   39.9440   42.9620 H         1 <0>         0.0000
     19 H19        21.8990   40.1560   44.3830 H         1 <0>         0.0000
     20 H20        22.2480   38.6490   43.8610 H         1 <0>         0.0000
     21 H21        10.9950   41.6880   42.4240 H         1 <0>         0.0000
     22 C1         18.4340   39.5990   43.5970 C.ar      1 <0>         0.0000
     23 C2         19.8960   37.9160   44.5000 C.ar      1 <0>         0.0000
     24 C3         17.3670   39.1160   44.3650 C.ar      1 <0>         0.0000
     25 C4         17.5780   38.0050   45.2320 C.ar      1 <0>         0.0000
     26 C5         19.6950   39.0090   43.6670 C.ar      1 <0>         0.0000
     27 C6         18.8550   37.4200   45.2680 C.ar      1 <0>         0.0000
     28 C7         12.9240   39.4980   42.4050 C.3       1 <0>         0.0000
     29 C8         16.0740   39.8070   44.2400 C.2       1 <0>         0.0000
     30 C9         15.3380   39.8540   43.1080 C.2       1 <0>         0.0000
     31 C10        16.5490   37.3750   46.1400 C.2       1 <0>         0.0000
     32 C11        11.4100   38.5000   43.3410 C.2       1 <0>         0.0000
     33 C12        13.8970   40.3680   43.1480 C.3       1 <0>         0.0000
     34 C13        10.6660   38.5160   44.6400 C.3       1 <0>         0.0000
     35 C14        11.4710   37.7740   45.7100 C.3       1 <0>         0.0000
     36 C15        12.9280   38.1820   45.7230 C.3       1 <0>         0.0000
     37 C16        11.4560   39.7640   42.5150 C.3       1 <0>         0.0000
     38 C17        13.9730   37.6700   46.7100 C.3       1 <0>         0.0000
     39 C18        13.9330   38.3370   48.0830 C.3       1 <0>         0.0000
     40 C19        21.9810   39.5700   43.5770 C.3       1 <0>         0.0000
     41 O1         13.3050   38.9910   41.2070 O.3       1 <0>         0.0000
     42 O2         16.8310   36.5160   46.9810 O.2       1 <0>         0.0000
     43 O3         11.9540   37.4750   42.9850 O.2       1 <0>         0.0000
     44 O4         15.2730   37.8420   45.9850 O.3       1 <0>         0.0000
     45 O5         19.1290   36.4610   45.9730 O.3       1 <0>         0.0000
     46 O6         10.8980   40.9310   43.0710 O.3       1 <0>         0.0000
     47 O7         20.7280   39.5140   42.9000 O.3       1 <0>         0.0000
     48 H22        12.9863   38.5934   43.0277 H         1 <0>         0.0000
     49 H23        13.0224   38.0864   41.1411 H         1 <0>         0.0000
@<TRIPOS>BOND
     1    1   22 1
     2    2   23 1
     3    3   29 1
     4    4   30 1
     5    5   33 1
     6    6   33 1
     7    7   34 1
     8    8   34 1
     9    9   35 1
    10   10   35 1
    11   11   36 1
    12   12   36 1
    13   13   37 1
    14   14   38 1
    15   15   39 1
    16   16   39 1
    17   17   39 1
    18   18   40 1
    19   19   40 1
    20   20   40 1
    21   21   46 1
    22   22   24 ar
    23   22   26 ar
    24   23   26 ar
    25   23   27 ar
    26   24   25 ar
    27   24   29 1
    28   25   27 ar
    29   25   31 1
    30   26   47 1
    31   27   45 1
    32   28   33 1
    33   28   37 1
    34   28   41 1
    35   29   30 2
    36   30   33 1
    37   31   42 2
    38   31   44 1
    39   32   34 1
    40   32   37 1
    41   32   43 2
    42   34   35 1
    43   35   36 1
    44   36   38 1
    45   37   46 1
    46   38   39 1
    47   38   44 1
    48   40   47 1
    49   28   48 1
    50   41   49 1
