@<TRIPOS>MOLECULE
****
   36    38     0     0     0
SMALL
NO_CHARGES

@<TRIPOS>ATOM
      1 H1        -20.8080  -42.0000  -30.5570 H         1 <0>         0.0000
      2 H2        -19.0350  -43.0880  -29.3990 H         1 <0>         0.0000
      3 H3        -20.4320  -39.9090  -31.6340 H         1 <0>         0.0000
      4 H4        -16.8630  -42.1030  -29.3440 H         1 <0>         0.0000
      5 H5        -18.2630  -38.9250  -31.5760 H         1 <0>         0.0000
      6 H6        -15.1950  -36.8500  -25.0180 H         1 <0>         0.0000
      7 H7        -17.4990  -32.7630  -29.2980 H         1 <0>         0.0000
      8 H8        -15.3460  -40.5240  -30.5640 H         1 <0>         0.0000
      9 H9        -15.9680  -39.1440  -31.1770 H         1 <0>         0.0000
     10 H10       -13.8740  -38.1970  -29.6610 H         1 <0>         0.0000
     11 H11       -13.8800  -38.7760  -28.1340 H         1 <0>         0.0000
     12 H12       -16.0270  -39.5960  -28.3420 H         1 <0>         0.0000
     13 H13       -16.8170  -37.4480  -29.9540 H         1 <0>         0.0000
     14 H14       -12.5860  -40.0930  -29.5010 H         1 <0>         0.0000
     15 C1        -19.9010  -41.5800  -30.5270 C.ar      1 <0>         0.0000
     16 C2        -18.8700  -42.2150  -29.8570 C.ar      1 <0>         0.0000
     17 C3        -19.6840  -40.3690  -31.1550 C.ar      1 <0>         0.0000
     18 C4        -17.6120  -41.6420  -29.8210 C.ar      1 <0>         0.0000
     19 C5        -18.4270  -39.7980  -31.1170 C.ar      1 <0>         0.0000
     20 C6        -17.3940  -40.4290  -30.4470 C.ar      1 <0>         0.0000
     21 C7        -15.5550  -36.4880  -25.8780 C.2       1 <0>         0.0000
     22 C8        -17.1520  -33.5270  -28.7540 C.2       1 <0>         0.0000
     23 C9        -16.1640  -36.8770  -28.0730 C.cat     1 <0>         0.0000
     24 C10       -16.3500  -34.6900  -27.0680 C.cat     1 <0>         0.0000
     25 C11       -16.5150  -35.5200  -28.1920 C.cat     1 <0>         0.0000
     26 C12       -16.0240  -39.8020  -30.4260 C.3       1 <0>         0.0000
     27 C13       -14.1690  -38.9520  -29.0750 C.3       1 <0>         0.0000
     28 C14       -15.6930  -39.0750  -29.1270 C.3       1 <0>         0.0000
     29 N1        -15.8730  -35.2130  -25.9460 N.2       1 <0>         0.0000
     30 N2        -15.6940  -37.3050  -26.9040 N.pl3     1 <0>         0.0000
     31 N3        -17.0100  -34.7450  -29.1890 N.2       1 <0>         0.0000
     32 N4        -16.7600  -33.4390  -27.4510 N.pl3     1 <0>         0.0000
     33 N5        -16.2990  -37.7400  -29.1500 N.pl3     1 <0>         0.0000
     34 O1        -13.5820  -40.1700  -29.5340 O.3       1 <0>         0.0000
     35 H15       -15.4407  -38.2669  -26.8012 H         1 <0>         0.0000
     36 H16       -16.7697  -32.6168  -26.8819 H         1 <0>         0.0000
@<TRIPOS>BOND
     1    1   15 1
     2    2   16 1
     3    3   17 1
     4    4   18 1
     5    5   19 1
     6    6   21 1
     7    7   22 1
     8    8   26 1
     9    9   26 1
    10   10   27 1
    11   11   27 1
    12   12   28 1
    13   13   33 1
    14   14   34 1
    15   15   16 ar
    16   15   17 ar
    17   16   18 ar
    18   17   19 ar
    19   18   20 ar
    20   19   20 ar
    21   20   26 1
    22   21   29 2
    23   21   30 1
    24   22   31 2
    25   22   32 1
    26   23   25 1
    27   23   30 2
    28   23   33 1
    29   24   25 1
    30   24   29 1
    31   24   32 2
    32   25   31 1
    33   26   28 1
    34   27   28 1
    35   27   34 1
    36   28   33 1
    37   30   35 1
    38   32   36 1
