@<TRIPOS>MOLECULE
****
   54    57     0     0     0
SMALL
NO_CHARGES

@<TRIPOS>ATOM
      1 H1         24.3379   69.6677   25.9439 H         1 <0>         0.0000
      2 H2         25.0440   75.0050   22.0130 H         1 <0>         0.0000
      3 H3         23.3700   73.3870   22.5540 H         1 <0>         0.0000
      4 H4         22.6270   65.0200   22.4100 H         1 <0>         0.0000
      5 H5         21.4150   64.9690   20.3520 H         1 <0>         0.0000
      6 H6         24.8100   77.2610   22.7630 H         1 <0>         0.0000
      7 H7         21.2130   76.2700   24.5510 H         1 <0>         0.0000
      8 H8         24.6150   63.1570   18.5010 H         1 <0>         0.0000
      9 H9         26.4110   65.3840   26.7560 H         1 <0>         0.0000
     10 H10        22.3290   67.5990   22.9440 H         1 <0>         0.0000
     11 H11        24.8290   68.6420   26.8200 H         1 <0>         0.0000
     12 H12        24.9440   67.3950   27.8690 H         1 <0>         0.0000
     13 H13        26.2950   68.0450   27.2220 H         1 <0>         0.0000
     14 H14        19.5760   74.7440   23.1330 H         1 <0>         0.0000
     15 H15        20.2020   73.6090   22.1400 H         1 <0>         0.0000
     16 H16        20.8230   73.8240   24.9480 H         1 <0>         0.0000
     17 H17        25.7870   63.4680   22.9160 H         1 <0>         0.0000
     18 H18        21.4210   71.7990   23.0500 H         1 <0>         0.0000
     19 H19        18.6000   73.0910   24.4080 H         1 <0>         0.0000
     20 C1         23.6770   69.4180   25.1270 C.3       1 <0>         0.0000
     21 C2         24.2430   75.2760   22.5470 C.ar      1 <0>         0.0000
     22 C3         23.2690   74.3310   22.8690 C.ar      1 <0>         0.0000
     23 C4         23.0570   64.6430   21.5900 C.ar      1 <0>         0.0000
     24 C5         22.3510   64.6200   20.3990 C.ar      1 <0>         0.0000
     25 C6         24.1030   76.5830   22.9640 C.ar      1 <0>         0.0000
     26 C7         22.0120   75.9990   24.0140 C.ar      1 <0>         0.0000
     27 C8         24.2100   63.5570   19.3230 C.ar      1 <0>         0.0000
     28 C9         25.8710   65.5980   25.9420 C.ar      1 <0>         0.0000
     29 C10        22.6110   68.3220   23.5740 C.2       1 <0>         0.0000
     30 C11        23.6630   68.2270   24.4740 C.2       1 <0>         0.0000
     31 C12        22.7260   70.2610   24.5960 C.2       1 <0>         0.0000
     32 C13        22.1690   74.6890   23.6180 C.ar      1 <0>         0.0000
     33 C14        25.2560   66.8400   25.9040 C.ar      1 <0>         0.0000
     34 C15        24.3620   64.1460   21.6620 C.ar      1 <0>         0.0000
     35 C16        22.9620   64.1110   19.2920 C.ar      1 <0>         0.0000
     36 C17        22.9680   76.9380   23.6640 C.ar      1 <0>         0.0000
     37 C18        24.8970   63.5650   20.5200 C.ar      1 <0>         0.0000
     38 C19        24.5170   67.0560   24.6770 C.ar      1 <0>         0.0000
     39 C20        25.0610   64.9740   23.9220 C.ar      1 <0>         0.0000
     40 C21        22.3190   71.6270   24.8890 C.2       1 <0>         0.0000
     41 C22        25.3380   67.8120   27.0500 C.3       1 <0>         0.0000
     42 C23        19.9210   73.8070   23.0790 C.3       1 <0>         0.0000
     43 C24        21.1160   73.6550   24.0070 C.3       1 <0>         0.0000
     44 N1         25.8090   64.6680   25.0000 N.ar      1 <0>         0.0000
     45 N2         24.4400   66.1240   23.7230 N.ar      1 <0>         0.0000
     46 N3         22.0310   69.5180   23.6720 N.2       1 <0>         0.0000
     47 N4         25.0930   64.1860   22.8550 N.pl3     1 <0>         0.0000
     48 N5         21.6080   72.2930   23.8990 N.am      1 <0>         0.0000
     49 O1         22.5170   72.1260   25.9780 O.2       1 <0>         0.0000
     50 O2         18.8830   72.8930   23.4690 O.3       1 <0>         0.0000
     51 F1         22.3280   64.2180   18.0860 F         1 <0>         0.0000
     52 Cl1        22.6630   78.5920   24.0180 Cl        1 <0>         0.0000
     53 Cl2        26.5370   62.9610   20.5400 Cl        1 <0>         0.0000
     54 H20        23.6770   69.4180   25.1270 H         1 <0>         0.0000
@<TRIPOS>BOND
     1    1   20 1
     2    2   21 1
     3    3   22 1
     4    4   23 1
     5    5   24 1
     6    6   25 1
     7    7   26 1
     8    8   27 1
     9    9   28 1
    10   10   29 1
    11   11   41 1
    12   12   41 1
    13   13   41 1
    14   14   42 1
    15   15   42 1
    16   16   43 1
    17   17   47 1
    18   18   48 1
    19   19   50 1
    20   20   30 1
    21   20   31 1
    22   21   22 ar
    23   21   25 ar
    24   22   32 ar
    25   23   24 ar
    26   23   34 ar
    27   24   35 ar
    28   25   36 ar
    29   26   32 ar
    30   26   36 ar
    31   27   35 ar
    32   27   37 ar
    33   28   33 ar
    34   28   44 ar
    35   29   30 2
    36   29   46 1
    37   30   38 1
    38   31   40 1
    39   31   46 2
    40   32   43 1
    41   33   38 ar
    42   33   41 1
    43   34   37 ar
    44   34   47 1
    45   35   51 1
    46   36   52 1
    47   37   53 1
    48   38   45 ar
    49   39   44 ar
    50   39   45 ar
    51   39   47 1
    52   40   48 am
    53   40   49 2
    54   42   43 1
    55   42   50 1
    56   43   48 1
    57   20   54 1
