@<TRIPOS>MOLECULE
****
   53    57     0     0     0
SMALL
NO_CHARGES

@<TRIPOS>ATOM
      1 H1          6.9140   15.9630    9.2370 H         1 <0>         0.0000
      2 H2          9.1150   16.8470    8.9990 H         1 <0>         0.0000
      3 H3          6.0580   15.3350   11.3730 H         1 <0>         0.0000
      4 H4         13.1780   17.7130   17.7770 H         1 <0>         0.0000
      5 H5         12.0730   15.6860   18.4510 H         1 <0>         0.0000
      6 H6         10.4960   17.1010   10.9520 H         1 <0>         0.0000
      7 H7          7.4340   15.5550   13.3220 H         1 <0>         0.0000
      8 H8         12.6890   18.6730   15.6220 H         1 <0>         0.0000
      9 H9          9.3120   19.3220   12.3910 H         1 <0>         0.0000
     10 H10        10.4850   14.6290   16.9330 H         1 <0>         0.0000
     11 H11        18.7020   23.8000   11.5910 H         1 <0>         0.0000
     12 H12        17.7310   24.4550   10.4520 H         1 <0>         0.0000
     13 H13        17.8870   25.1800   11.9070 H         1 <0>         0.0000
     14 H14        16.7870   23.3210   12.9500 H         1 <0>         0.0000
     15 H15        16.6320   22.5960   11.4950 H         1 <0>         0.0000
     16 H16        15.3020   24.4500   10.7710 H         1 <0>         0.0000
     17 H17        15.3780   25.0530   12.2860 H         1 <0>         0.0000
     18 H18        14.2880   22.8200   12.8700 H         1 <0>         0.0000
     19 H19        13.3720   24.0780   12.3760 H         1 <0>         0.0000
     20 H20        14.3660   21.9590   10.7030 H         1 <0>         0.0000
     21 H21        13.6110   23.2810   10.1130 H         1 <0>         0.0000
     22 H22         8.3520   21.0660   11.0090 H         1 <0>         0.0000
     23 H23         8.6520   22.5150   10.1100 H         1 <0>         0.0000
     24 C1          7.4910   16.0700   10.0470 C.ar      1 <0>         0.0000
     25 C2          8.7720   16.5850    9.9010 C.ar      1 <0>         0.0000
     26 C3          6.9870   15.6970   11.2940 C.ar      1 <0>         0.0000
     27 C4         12.5190   17.2730   17.1660 C.ar      1 <0>         0.0000
     28 C5         11.8780   16.0930   17.5590 C.ar      1 <0>         0.0000
     29 C6          9.5710   16.7310   11.0340 C.ar      1 <0>         0.0000
     30 C7          7.7820   15.8310   12.4260 C.ar      1 <0>         0.0000
     31 C8         12.2380   17.8330   15.9240 C.ar      1 <0>         0.0000
     32 C9         10.2930   19.5150   12.3950 C.2       1 <0>         0.0000
     33 C10        10.9470   15.4780   16.6780 C.ar      1 <0>         0.0000
     34 C11         9.0640   16.3510   12.3040 C.ar      1 <0>         0.0000
     35 C12        10.8240   20.6350   11.7340 C.2       1 <0>         0.0000
     36 C13        11.2070   18.6760   13.0650 C.2       1 <0>         0.0000
     37 C14        11.3030   17.1830   15.1110 C.ar      1 <0>         0.0000
     38 C15        12.1770   20.9020   11.7720 C.cat     1 <0>         0.0000
     39 C16         9.8570   16.4730   13.5420 C.2       1 <0>         0.0000
     40 C17        10.3110   21.6770   10.9790 C.2       1 <0>         0.0000
     41 C18        10.8030   17.4700   13.8380 C.2       1 <0>         0.0000
     42 C19        17.8500   24.3000   11.4330 C.3       1 <0>         0.0000
     43 C20        16.6640   23.4760   11.9700 C.3       1 <0>         0.0000
     44 C21        15.3580   24.2150   11.7410 C.3       1 <0>         0.0000
     45 C22        14.0980   23.4430   12.1110 C.3       1 <0>         0.0000
     46 C23        13.6810   22.6620   10.8950 C.3       1 <0>         0.0000
     47 N1         12.5110   18.9850   13.0780 N.2       1 <0>         0.0000
     48 N2         13.0200   20.1280   12.4600 N.2       1 <0>         0.0000
     49 N3          9.7960   15.5820   14.5730 N.2       1 <0>         0.0000
     50 N4         11.2350   22.5730   10.5640 N.2       1 <0>         0.0000
     51 N5         10.7010   16.0700   15.4850 N.ar      1 <0>         0.0000
     52 N6         12.3970   22.0290   11.1210 N.pl3     1 <0>         0.0000
     53 N7          8.9880   21.7600   10.6720 N.pl3     1 <0>         0.0000
@<TRIPOS>BOND
     1    1   24 1
     2    2   25 1
     3    3   26 1
     4    4   27 1
     5    5   28 1
     6    6   29 1
     7    7   30 1
     8    8   31 1
     9    9   32 1
    10   10   33 1
    11   11   42 1
    12   12   42 1
    13   13   42 1
    14   14   43 1
    15   15   43 1
    16   16   44 1
    17   17   44 1
    18   18   45 1
    19   19   45 1
    20   20   46 1
    21   21   46 1
    22   22   53 1
    23   23   53 1
    24   24   25 ar
    25   24   26 ar
    26   25   29 ar
    27   26   30 ar
    28   27   28 ar
    29   27   31 ar
    30   28   33 ar
    31   29   34 ar
    32   30   34 ar
    33   31   37 ar
    34   32   35 2
    35   32   36 1
    36   33   51 ar
    37   34   39 1
    38   35   38 1
    39   35   40 1
    40   36   41 2
    41   36   47 1
    42   37   41 1
    43   37   51 ar
    44   38   48 1
    45   38   52 2
    46   39   41 1
    47   39   49 2
    48   40   50 2
    49   40   53 1
    50   42   43 1
    51   43   44 1
    52   44   45 1
    53   45   46 1
    54   46   52 1
    55   47   48 2
    56   49   51 1
    57   50   52 1
