@<TRIPOS>MOLECULE
****
   63    66     0     0     0
SMALL
NO_CHARGES

@<TRIPOS>ATOM
      1 H1         43.2320  -17.7880    6.6890 H         1 <0>         0.0000
      2 H2         44.3540  -17.6910    8.9940 H         1 <0>         0.0000
      3 H3         40.7560  -18.3210    7.0490 H         1 <0>         0.0000
      4 H4         41.9980  -19.8930   13.0180 H         1 <0>         0.0000
      5 H5         40.6040  -20.1000   12.1930 H         1 <0>         0.0000
      6 H6         39.6340  -18.4260   11.0010 H         1 <0>         0.0000
      7 H7         40.2430  -16.9110   10.9640 H         1 <0>         0.0000
      8 H8         40.0930  -20.0030   14.5210 H         1 <0>         0.0000
      9 H9         40.8660  -18.5700   14.6480 H         1 <0>         0.0000
     10 H10        39.6070  -16.5490   13.2040 H         1 <0>         0.0000
     11 H11        38.2890  -17.0820   12.4000 H         1 <0>         0.0000
     12 H12        38.8880  -16.3290   18.7270 H         1 <0>         0.0000
     13 H13        39.9970  -15.1660   19.0160 H         1 <0>         0.0000
     14 H14        38.4710  -14.7550   18.6030 H         1 <0>         0.0000
     15 H15        40.3450  -14.0540   15.6020 H         1 <0>         0.0000
     16 H16        39.3560  -13.3730   16.7080 H         1 <0>         0.0000
     17 H17        40.8820  -13.7850   17.1200 H         1 <0>         0.0000
     18 H18        33.2130  -17.9060   12.5180 H         1 <0>         0.0000
     19 H19        31.8430  -17.7200   13.3880 H         1 <0>         0.0000
     20 H20        32.4120  -16.4840   12.4850 H         1 <0>         0.0000
     21 H21        33.7230  -14.2000   17.9180 H         1 <0>         0.0000
     22 H22        32.8270  -13.5920   16.6960 H         1 <0>         0.0000
     23 H23        32.2490  -14.8240   17.5990 H         1 <0>         0.0000
     24 H24        37.9250  -19.8430   14.5140 H         1 <0>         0.0000
     25 H25        37.5240  -19.5090   12.9660 H         1 <0>         0.0000
     26 H26        37.7450  -15.1750   16.1180 H         1 <0>         0.0000
     27 H27        38.8220  -15.9160   15.1380 H         1 <0>         0.0000
     28 H28        38.4870  -17.9550   16.2750 H         1 <0>         0.0000
     29 H29        37.4640  -17.2250   17.3180 H         1 <0>         0.0000
     30 H30        40.3580  -16.0730   16.8730 H         1 <0>         0.0000
     31 C1         42.7830  -17.9300    7.5710 C.2       1 <0>         0.0000
     32 C2         43.3880  -17.8740    8.8110 C.2       1 <0>         0.0000
     33 C3         41.4420  -18.2190    7.7690 C.2       1 <0>         0.0000
     34 C4         42.4010  -18.1200    9.7540 C.2       1 <0>         0.0000
     35 C5         34.7110  -17.2490   14.3900 C.2       1 <0>         0.0000
     36 C6         34.9970  -15.8380   16.4910 C.2       1 <0>         0.0000
     37 C7         36.6810  -18.2060   14.3280 C.cat     1 <0>         0.0000
     38 C8         32.9350  -15.8540   15.1550 C.2       1 <0>         0.0000
     39 C9         35.5320  -16.8050   15.5050 C.cat     1 <0>         0.0000
     40 C10        42.4450  -18.2090   11.2560 C.2       1 <0>         0.0000
     41 C11        41.1230  -19.4740   12.7750 C.3       1 <0>         0.0000
     42 C12        40.0810  -17.7120   11.5400 C.3       1 <0>         0.0000
     43 C13        40.3240  -19.1550   14.0440 C.3       1 <0>         0.0000
     44 C14        39.2010  -17.3290   12.7280 C.3       1 <0>         0.0000
     45 C15        39.2050  -15.4190   18.4600 C.3       1 <0>         0.0000
     46 C16        40.0880  -14.0400   16.5680 C.3       1 <0>         0.0000
     47 C17        32.6690  -17.2630   13.0570 C.3       1 <0>         0.0000
     48 C18        33.0710  -14.4240   17.1940 C.3       1 <0>         0.0000
     49 C19        37.8040  -19.1130   13.8410 C.3       1 <0>         0.0000
     50 C20        38.4610  -15.8720   16.0700 C.3       1 <0>         0.0000
     51 C21        37.8140  -17.2230   16.3810 C.3       1 <0>         0.0000
     52 C22        39.6000  -15.4300   16.9870 C.3       1 <0>         0.0000
     53 N1         35.4700  -18.1180   13.6930 N.2       1 <0>         0.0000
     54 N2         33.4600  -16.7910   14.2020 N.am      1 <0>         0.0000
     55 N3         33.6810  -15.3900   16.2660 N.am      1 <0>         0.0000
     56 N4         41.3520  -18.2100   12.0720 N.am      1 <0>         0.0000
     57 N5         36.7120  -17.4160   15.4350 N.pl3     1 <0>         0.0000
     58 N6         39.0970  -18.4580   13.6470 N.4       1 <0>         0.0000
     59 O1         35.6670  -15.4390   17.4690 O.2       1 <0>         0.0000
     60 O2         31.7860  -15.3960   15.0320 O.2       1 <0>         0.0000
     61 O3         43.5740  -18.2950   11.7290 O.2       1 <0>         0.0000
     62 O4         41.2090  -18.3430    9.1250 O.3       1 <0>         0.0000
     63 H31        39.0398  -17.8977   14.4733 H         1 <0>         0.0000
@<TRIPOS>BOND
     1    1   31 1
     2    2   32 1
     3    3   33 1
     4    4   41 1
     5    5   41 1
     6    6   42 1
     7    7   42 1
     8    8   43 1
     9    9   43 1
    10   10   44 1
    11   11   44 1
    12   12   45 1
    13   13   45 1
    14   14   45 1
    15   15   46 1
    16   16   46 1
    17   17   46 1
    18   18   47 1
    19   19   47 1
    20   20   47 1
    21   21   48 1
    22   22   48 1
    23   23   48 1
    24   24   49 1
    25   25   49 1
    26   26   50 1
    27   27   50 1
    28   28   51 1
    29   29   51 1
    30   30   52 1
    31   31   32 1
    32   31   33 2
    33   32   34 2
    34   33   62 1
    35   34   40 1
    36   34   62 1
    37   35   39 1
    38   35   53 2
    39   35   54 1
    40   36   39 1
    41   36   55 am
    42   36   59 2
    43   37   49 1
    44   37   53 1
    45   37   57 2
    46   38   54 am
    47   38   55 am
    48   38   60 2
    49   39   57 1
    50   40   56 am
    51   40   61 2
    52   41   43 1
    53   41   56 1
    54   42   44 1
    55   42   56 1
    56   43   58 1
    57   44   58 1
    58   45   52 1
    59   46   52 1
    60   47   54 1
    61   48   55 1
    62   49   58 1
    63   50   51 1
    64   50   52 1
    65   51   57 1
    66   58   63 1
