@<TRIPOS>MOLECULE
****
   34    35     0     0     0
SMALL
NO_CHARGES

@<TRIPOS>ATOM
      1 H1          7.4210  -17.2980  -32.9700 H         1 <0>         0.0000
      2 H2          6.1630  -17.7620  -34.9380 H         1 <0>         0.0000
      3 H3          8.5110  -13.1740  -30.7730 H         1 <0>         0.0000
      4 H4          5.3830  -13.7450  -35.4860 H         1 <0>         0.0000
      5 H5          8.4540  -16.7700  -31.3340 H         1 <0>         0.0000
      6 H6          9.6040  -15.6660  -30.9790 H         1 <0>         0.0000
      7 H7          8.2690  -15.7840  -30.0450 H         1 <0>         0.0000
      8 H8          3.6190  -19.2200  -36.2200 H         1 <0>         0.0000
      9 H9          4.2690  -18.3340  -35.0120 H         1 <0>         0.0000
     10 H10         2.8750  -17.8560  -35.7150 H         1 <0>         0.0000
     11 H11         2.6420  -13.7450  -37.4960 H         1 <0>         0.0000
     12 H12         2.2770  -15.2090  -36.8700 H         1 <0>         0.0000
     13 H13         3.0460  -14.0980  -35.9530 H         1 <0>         0.0000
     14 H14         5.4300  -17.9430  -37.0460 H         1 <0>         0.0000
     15 H15         4.0350  -17.4650  -37.7500 H         1 <0>         0.0000
     16 H16         4.1740  -15.3590  -38.2790 H         1 <0>         0.0000
     17 H17         4.9430  -14.2480  -37.3620 H         1 <0>         0.0000
     18 C1          7.0020  -16.5490  -33.4830 C.ar      1 <0>         0.0000
     19 C2          6.2580  -16.8150  -34.6310 C.ar      1 <0>         0.0000
     20 C3          7.9950  -13.4790  -31.5740 C.2       1 <0>         0.0000
     21 C4          5.8040  -14.4810  -34.9560 C.ar      1 <0>         0.0000
     22 C5          7.1560  -15.2410  -33.0590 C.ar      1 <0>         0.0000
     23 C6          7.9210  -14.8410  -31.8520 C.2       1 <0>         0.0000
     24 C7          5.6400  -15.7980  -35.3680 C.ar      1 <0>         0.0000
     25 C8          6.5310  -14.1740  -33.8390 C.ar      1 <0>         0.0000
     26 C9          7.3730  -12.5310  -32.3770 C.2       1 <0>         0.0000
     27 C10         8.6210  -15.8500  -30.9790 C.3       1 <0>         0.0000
     28 C11         3.7610  -18.2930  -35.8720 C.3       1 <0>         0.0000
     29 C12         2.9490  -14.4680  -36.8770 C.3       1 <0>         0.0000
     30 C13         4.5560  -17.4800  -36.8960 C.3       1 <0>         0.0000
     31 C14         4.2890  -15.0040  -37.3510 C.3       1 <0>         0.0000
     32 N1          4.8410  -16.0800  -36.5100 N.pl3     1 <0>         0.0000
     33 O1          7.4650  -11.3190  -32.1130 O.2       1 <0>         0.0000
     34 O2          6.6470  -12.8710  -33.4730 O.3       1 <0>         0.0000
@<TRIPOS>BOND
     1    1   18 1
     2    2   19 1
     3    3   20 1
     4    4   21 1
     5    5   27 1
     6    6   27 1
     7    7   27 1
     8    8   28 1
     9    9   28 1
    10   10   28 1
    11   11   29 1
    12   12   29 1
    13   13   29 1
    14   14   30 1
    15   15   30 1
    16   16   31 1
    17   17   31 1
    18   18   19 ar
    19   18   22 ar
    20   19   24 ar
    21   20   23 2
    22   20   26 1
    23   21   24 ar
    24   21   25 ar
    25   22   23 1
    26   22   25 ar
    27   23   27 1
    28   24   32 1
    29   25   34 1
    30   26   33 2
    31   26   34 1
    32   28   30 1
    33   29   31 1
    34   30   32 1
    35   31   32 1
