@<TRIPOS>MOLECULE
****
   67    72     0     0     0
SMALL
NO_CHARGES

@<TRIPOS>ATOM
      1 H1          9.6610    1.3720   32.1590 H         1 <0>         0.0000
      2 H2          9.5620    0.3120   34.2900 H         1 <0>         0.0000
      3 H3         11.7870    2.0540   31.2690 H         1 <0>         0.0000
      4 H4         15.8190    2.8260   35.8510 H         1 <0>         0.0000
      5 H5         12.0060    2.2260   37.2050 H         1 <0>         0.0000
      6 H6         14.5310    1.1730   39.0400 H         1 <0>         0.0000
      7 H7         11.5630   -0.0760   35.5860 H         1 <0>         0.0000
      8 H8         13.7770    1.6880   32.5450 H         1 <0>         0.0000
      9 H9         15.5390    5.1740   36.0720 H         1 <0>         0.0000
     10 H10        11.7280    4.5520   37.4580 H         1 <0>         0.0000
     11 H11        16.5840    0.7620   40.2570 H         1 <0>         0.0000
     12 H12        18.3310   -0.6270   36.7860 H         1 <0>         0.0000
     13 H13        17.0270    0.3070   34.6970 H         1 <0>         0.0000
     14 H14        16.6910   -1.2520   35.0520 H         1 <0>         0.0000
     15 H15        15.8330   11.6390   38.0460 H         1 <0>         0.0000
     16 H16        15.0150   11.3530   36.6620 H         1 <0>         0.0000
     17 H17        13.7990   11.2870   39.3100 H         1 <0>         0.0000
     18 H18        13.5620   12.4750   38.2150 H         1 <0>         0.0000
     19 H19        15.5580    9.3940   38.7190 H         1 <0>         0.0000
     20 H20        16.2200    9.4070   37.2260 H         1 <0>         0.0000
     21 H21        15.2950    0.1960   33.4510 H         1 <0>         0.0000
     22 H22        14.7290   -1.1380   34.2050 H         1 <0>         0.0000
     23 H23        11.9940    6.5990   38.4180 H         1 <0>         0.0000
     24 H24        11.3620    6.5010   36.9150 H         1 <0>         0.0000
     25 H25        15.3280    7.0280   37.0110 H         1 <0>         0.0000
     26 H26        14.5700    7.1340   38.4540 H         1 <0>         0.0000
     27 H27        11.8060   10.8650   37.9080 H         1 <0>         0.0000
     28 H28        12.8000   10.7620   36.6170 H         1 <0>         0.0000
     29 H29        11.6810    8.7190   36.5210 H         1 <0>         0.0000
     30 H30        11.0880    8.6500   38.0410 H         1 <0>         0.0000
     31 H31        13.2560    0.3310   36.8160 H         1 <0>         0.0000
     32 H32        14.1090    8.9240   36.2480 H         1 <0>         0.0000
     33 H33        18.9550    0.0050   40.2150 H         1 <0>         0.0000
     34 C1         10.5000    1.2140   32.6800 C.ar      1 <0>         0.0000
     35 C2         10.4470    0.5970   33.9230 C.ar      1 <0>         0.0000
     36 C3         11.7330    1.6120   32.1640 C.ar      1 <0>         0.0000
     37 C4         14.9480    3.1820   36.1900 C.ar      1 <0>         0.0000
     38 C5         12.7650    2.8330   36.9690 C.ar      1 <0>         0.0000
     39 C6         15.3320    0.8090   38.5640 C.ar      1 <0>         0.0000
     40 C7         11.6290    0.3610   34.6890 C.ar      1 <0>         0.0000
     41 C8         12.8990    1.3850   32.9160 C.ar      1 <0>         0.0000
     42 C9         14.7820    4.5700   36.3210 C.ar      1 <0>         0.0000
     43 C10        12.6020    4.2140   37.1090 C.ar      1 <0>         0.0000
     44 C11        16.5280    0.5650   39.2780 C.ar      1 <0>         0.0000
     45 C12        17.5450   -0.2360   37.2650 C.ar      1 <0>         0.0000
     46 C13        13.9360    2.2900   36.5180 C.ar      1 <0>         0.0000
     47 C14        15.2680    0.5430   37.2000 C.ar      1 <0>         0.0000
     48 C15        16.3690    0.0200   36.5750 C.ar      1 <0>         0.0000
     49 C16        13.5790    5.1390   36.7930 C.ar      1 <0>         0.0000
     50 C17        12.8780    0.7390   34.1870 C.ar      1 <0>         0.0000
     51 C18        17.6290    0.0460   38.5970 C.ar      1 <0>         0.0000
     52 C19        16.3700   -0.3080   35.1340 C.3       1 <0>         0.0000
     53 C20        15.0860   11.1190   37.6320 C.3       1 <0>         0.0000
     54 C21        13.7650   11.5030   38.3340 C.3       1 <0>         0.0000
     55 C22        15.3990    9.6160   37.7570 C.3       1 <0>         0.0000
     56 C23        15.0810   -0.2110   34.3390 C.3       1 <0>         0.0000
     57 C24        12.0810    6.9150   37.4730 C.3       1 <0>         0.0000
     58 C25        14.4790    7.2890   37.4700 C.3       1 <0>         0.0000
     59 C26        12.7280   10.6250   37.6050 C.3       1 <0>         0.0000
     60 C27        11.8740    8.4370   37.4610 C.3       1 <0>         0.0000
     61 C28        14.0460    0.7780   36.3970 C.3       1 <0>         0.0000
     62 C29        14.2240    8.7620   37.2280 C.3       1 <0>         0.0000
     63 N1         13.3830    6.4520   36.9550 N.pl3     1 <0>         0.0000
     64 N2         14.0520    0.5680   34.9440 N.pl3     1 <0>         0.0000
     65 N3         13.0200    9.2050   37.9430 N.4       1 <0>         0.0000
     66 O1         18.8540   -0.1960   39.2410 O.3       1 <0>         0.0000
     67 H34        13.1330    9.0959   38.9306 H         1 <0>         0.0000
@<TRIPOS>BOND
     1    1   34 1
     2    2   35 1
     3    3   36 1
     4    4   37 1
     5    5   38 1
     6    6   39 1
     7    7   40 1
     8    8   41 1
     9    9   42 1
    10   10   43 1
    11   11   44 1
    12   12   45 1
    13   13   52 1
    14   14   52 1
    15   15   53 1
    16   16   53 1
    17   17   54 1
    18   18   54 1
    19   19   55 1
    20   20   55 1
    21   21   56 1
    22   22   56 1
    23   23   57 1
    24   24   57 1
    25   25   58 1
    26   26   58 1
    27   27   59 1
    28   28   59 1
    29   29   60 1
    30   30   60 1
    31   31   61 1
    32   32   62 1
    33   33   66 1
    34   34   35 ar
    35   34   36 ar
    36   35   40 ar
    37   36   41 ar
    38   37   42 ar
    39   37   46 ar
    40   38   43 ar
    41   38   46 ar
    42   39   44 ar
    43   39   47 ar
    44   40   50 ar
    45   41   50 ar
    46   42   49 ar
    47   43   49 ar
    48   44   51 ar
    49   45   48 ar
    50   45   51 ar
    51   46   61 1
    52   47   48 ar
    53   47   61 1
    54   48   52 1
    55   49   63 1
    56   50   64 1
    57   51   66 1
    58   52   56 1
    59   53   54 1
    60   53   55 1
    61   54   59 1
    62   55   62 1
    63   56   64 1
    64   57   60 1
    65   57   63 1
    66   58   62 1
    67   58   63 1
    68   59   65 1
    69   60   65 1
    70   61   64 1
    71   62   65 1
    72   65   67 1
