@<TRIPOS>MOLECULE
****
   56    59     0     0     0
SMALL
NO_CHARGES

@<TRIPOS>ATOM
      1 H1         23.4080   36.7860   57.4820 H         1 <0>         0.0000
      2 H2         14.3980   33.4060   52.5240 H         1 <0>         0.0000
      3 H3         23.5450   35.4220   55.5230 H         1 <0>         0.0000
      4 H4         21.2580   37.4650   58.3170 H         1 <0>         0.0000
      5 H5         13.4910   34.7670   54.2840 H         1 <0>         0.0000
      6 H6         16.7500   32.9920   52.3870 H         1 <0>         0.0000
      7 H7         21.5390   34.6120   54.4750 H         1 <0>         0.0000
      8 H8         19.2650   36.7340   57.2120 H         1 <0>         0.0000
      9 H9         14.8250   36.1140   51.7180 H         1 <0>         0.0000
     10 H10        16.4200   35.6320   47.9170 H         1 <0>         0.0000
     11 H11        14.9720   35.9180   55.8010 H         1 <0>         0.0000
     12 H12        12.6450   36.4140   50.7770 H         1 <0>         0.0000
     13 H13        14.2560   36.1130   46.9650 H         1 <0>         0.0000
     14 H14        20.3310   37.5410   49.3420 H         1 <0>         0.0000
     15 H15        19.5800   37.7820   50.7720 H         1 <0>         0.0000
     16 H16        21.1040   37.1980   50.7390 H         1 <0>         0.0000
     17 H17        20.4550   33.4530   53.6900 H         1 <0>         0.0000
     18 H18        19.2040   32.5200   53.2070 H         1 <0>         0.0000
     19 H19        17.3120   36.4750   51.1790 H         1 <0>         0.0000
     20 H20        17.1770   34.8530   51.0480 H         1 <0>         0.0000
     21 H21        18.2110   36.4970   48.9140 H         1 <0>         0.0000
     22 H22        18.2500   34.8660   48.9760 H         1 <0>         0.0000
     23 H23        20.3190   35.1810   49.7380 H         1 <0>         0.0000
     24 H24        17.6660   36.2810   56.4330 H         1 <0>         0.0000
     25 H25        19.2500   35.8900   52.3360 H         1 <0>         0.0000
     26 H26        11.8780   36.3710   47.3000 H         1 <0>         0.0000
     27 C1         22.5730   36.4840   57.0220 C.ar      1 <0>         0.0000
     28 C2         15.0160   33.8390   53.1800 C.ar      1 <0>         0.0000
     29 C3         22.6520   35.6750   55.8940 C.ar      1 <0>         0.0000
     30 C4         21.3200   36.8740   57.5120 C.ar      1 <0>         0.0000
     31 C5         14.4810   34.6600   54.1970 C.ar      1 <0>         0.0000
     32 C6         16.3820   33.6210   53.0720 C.ar      1 <0>         0.0000
     33 C7         21.4750   35.2110   55.2730 C.ar      1 <0>         0.0000
     34 C8         20.1570   36.4350   56.8730 C.ar      1 <0>         0.0000
     35 C9         14.7030   36.0910   50.7260 C.ar      1 <0>         0.0000
     36 C10        15.6420   35.8330   48.5130 C.ar      1 <0>         0.0000
     37 C11        15.3360   35.3240   55.0830 C.ar      1 <0>         0.0000
     38 C12        13.4320   36.2650   50.1780 C.ar      1 <0>         0.0000
     39 C13        14.3680   36.0660   47.9580 C.ar      1 <0>         0.0000
     40 C14        17.2400   34.3160   53.9610 C.ar      1 <0>         0.0000
     41 C15        20.2230   35.5800   55.7620 C.ar      1 <0>         0.0000
     42 C16        15.8130   35.8830   49.8880 C.ar      1 <0>         0.0000
     43 C17        18.6170   34.2690   54.1110 C.2       1 <0>         0.0000
     44 C18        16.7130   35.1350   54.9380 C.ar      1 <0>         0.0000
     45 C19        13.2600   36.2310   48.7960 C.ar      1 <0>         0.0000
     46 C20        18.9210   35.1530   55.1780 C.2       1 <0>         0.0000
     47 C21        19.7070   33.9740   51.8590 C.2       1 <0>         0.0000
     48 C22        20.2190   37.1960   50.2740 C.3       1 <0>         0.0000
     49 C23        19.5540   33.4560   53.2550 C.3       1 <0>         0.0000
     50 C24        17.1660   35.7170   50.5440 C.3       1 <0>         0.0000
     51 C25        18.3040   35.7050   49.5170 C.3       1 <0>         0.0000
     52 C26        19.6700   35.7650   50.2260 C.3       1 <0>         0.0000
     53 N1         17.7520   35.6460   55.6650 N.pl3     1 <0>         0.0000
     54 N2         19.5080   35.2640   51.6000 N.am      1 <0>         0.0000
     55 O1         20.0400   33.1950   50.9300 O.2       1 <0>         0.0000
     56 O2         12.0210   36.3920   48.2900 O.3       1 <0>         0.0000
@<TRIPOS>BOND
     1    1   27 1
     2    2   28 1
     3    3   29 1
     4    4   30 1
     5    5   31 1
     6    6   32 1
     7    7   33 1
     8    8   34 1
     9    9   35 1
    10   10   36 1
    11   11   37 1
    12   12   38 1
    13   13   39 1
    14   14   48 1
    15   15   48 1
    16   16   48 1
    17   17   49 1
    18   18   49 1
    19   19   50 1
    20   20   50 1
    21   21   51 1
    22   22   51 1
    23   23   52 1
    24   24   53 1
    25   25   54 1
    26   26   56 1
    27   27   29 ar
    28   27   30 ar
    29   28   31 ar
    30   28   32 ar
    31   29   33 ar
    32   30   34 ar
    33   31   37 ar
    34   32   40 ar
    35   33   41 ar
    36   34   41 ar
    37   35   38 ar
    38   35   42 ar
    39   36   39 ar
    40   36   42 ar
    41   37   44 ar
    42   38   45 ar
    43   39   45 ar
    44   40   43 1
    45   40   44 ar
    46   41   46 1
    47   42   50 1
    48   43   46 2
    49   43   49 1
    50   44   53 1
    51   45   56 1
    52   46   53 1
    53   47   49 1
    54   47   54 am
    55   47   55 2
    56   48   52 1
    57   50   51 1
    58   51   52 1
    59   52   54 1
