@<TRIPOS>MOLECULE
****
   39    42     0     0     0
SMALL
NO_CHARGES

@<TRIPOS>ATOM
      1 H1         15.1910   48.9590   55.8540 H         1 <0>         0.0000
      2 H2          9.8890   50.0050   59.0360 H         1 <0>         0.0000
      3 H3         10.1360   54.0980   59.9150 H         1 <0>         0.0000
      4 H4         12.9100   49.3440   56.5530 H         1 <0>         0.0000
      5 H5         17.0110   49.8940   57.1120 H         1 <0>         0.0000
      6 H6          7.5430   50.0540   59.4610 H         1 <0>         0.0000
      7 H7          7.7700   54.1250   60.3320 H         1 <0>         0.0000
      8 H8         13.4610   50.9270   63.3020 H         1 <0>         0.0000
      9 H9         13.6460   52.5090   62.9400 H         1 <0>         0.0000
     10 H10        14.6340   50.2500   61.4420 H         1 <0>         0.0000
     11 H11        15.4650   51.5910   61.8640 H         1 <0>         0.0000
     12 H12        11.4900   52.0370   62.1760 H         1 <0>         0.0000
     13 H13        11.9610   50.6080   61.5410 H         1 <0>         0.0000
     14 H14        14.6530   52.7850   60.1680 H         1 <0>         0.0000
     15 H15        11.9760   52.6630   58.4760 H         1 <0>         0.0000
     16 H16        12.5850   53.2480   60.5910 H         1 <0>         0.0000
     17 H17         5.6780   52.9620   60.4430 H         1 <0>         0.0000
     18 H18        17.8280   51.1510   58.9090 H         1 <0>         0.0000
     19 C1         15.0010   49.5080   56.6680 C.ar      1 <0>         0.0000
     20 C2          9.4580   50.8660   59.3060 C.ar      1 <0>         0.0000
     21 C3          9.6070   53.2550   59.8170 C.ar      1 <0>         0.0000
     22 C4         13.6700   49.7320   57.0740 C.ar      1 <0>         0.0000
     23 C5         16.0760   50.0670   57.4220 C.ar      1 <0>         0.0000
     24 C6          8.0670   50.9000   59.5580 C.ar      1 <0>         0.0000
     25 C7          8.2010   53.2630   60.0640 C.ar      1 <0>         0.0000
     26 C8         10.2580   52.0450   59.4310 C.ar      1 <0>         0.0000
     27 C9         14.5050   51.0830   58.9950 C.ar      1 <0>         0.0000
     28 C10        13.4230   50.5100   58.2250 C.ar      1 <0>         0.0000
     29 C11         7.3750   52.0940   59.9470 C.ar      1 <0>         0.0000
     30 C12        15.8900   50.8660   58.6040 C.ar      1 <0>         0.0000
     31 C13        13.4980   51.5960   62.5590 C.3       1 <0>         0.0000
     32 C14        14.5790   51.2410   61.5600 C.3       1 <0>         0.0000
     33 C15        12.2370   51.5520   61.7220 C.3       1 <0>         0.0000
     34 C16        14.1540   51.9210   60.2370 C.3       1 <0>         0.0000
     35 C17        11.7640   51.9600   59.1550 C.3       1 <0>         0.0000
     36 C18        12.6450   52.2650   60.4200 C.3       1 <0>         0.0000
     37 O1         12.0970   50.6770   58.5540 O.3       1 <0>         0.0000
     38 O2          6.1260   52.1100   60.1730 O.3       1 <0>         0.0000
     39 O3         16.9020   51.3380   59.2370 O.3       1 <0>         0.0000
@<TRIPOS>BOND
     1    1   19 1
     2    2   20 1
     3    3   21 1
     4    4   22 1
     5    5   23 1
     6    6   24 1
     7    7   25 1
     8    8   31 1
     9    9   31 1
    10   10   32 1
    11   11   32 1
    12   12   33 1
    13   13   33 1
    14   14   34 1
    15   15   35 1
    16   16   36 1
    17   17   38 1
    18   18   39 1
    19   19   22 ar
    20   19   23 ar
    21   20   24 ar
    22   20   26 ar
    23   21   25 ar
    24   21   26 ar
    25   22   28 ar
    26   23   30 ar
    27   24   29 ar
    28   25   29 ar
    29   26   35 1
    30   27   28 ar
    31   27   30 ar
    32   27   34 1
    33   28   37 1
    34   29   38 1
    35   30   39 1
    36   31   32 1
    37   31   33 1
    38   32   34 1
    39   33   36 1
    40   34   36 1
    41   35   36 1
    42   35   37 1
