@<TRIPOS>MOLECULE
****
   56    58     0     0     0
SMALL
NO_CHARGES

@<TRIPOS>ATOM
      1 H1         17.3270   23.2720   64.4100 H         1 <0>         0.0000
      2 H2         15.1050   27.6050   64.3220 H         1 <0>         0.0000
      3 H3         14.8683   19.1777   66.0902 H         1 <0>         0.0000
      4 H4         13.6894   23.0107   66.6310 H         1 <0>         0.0000
      5 H5         15.4240   20.4760   64.0910 H         1 <0>         0.0000
      6 H6         14.8310   22.2030   68.6410 H         1 <0>         0.0000
      7 H7         15.4460   18.5470   68.4610 H         1 <0>         0.0000
      8 H8         16.1550   20.9220   70.0240 H         1 <0>         0.0000
      9 H9         12.9200   25.7170   64.9620 H         1 <0>         0.0000
     10 H10        13.1640   26.5390   63.5720 H         1 <0>         0.0000
     11 H11        11.8690   24.5790   63.1170 H         1 <0>         0.0000
     12 H12        13.3230   24.4530   62.3850 H         1 <0>         0.0000
     13 H13        14.9070   22.5920   63.2770 H         1 <0>         0.0000
     14 H14        19.5390   26.0020   64.7760 H         1 <0>         0.0000
     15 H15        19.2820   24.5400   65.4570 H         1 <0>         0.0000
     16 H16        19.4330   24.6700   63.8370 H         1 <0>         0.0000
     17 H17        11.6440   22.4160   66.1160 H         1 <0>         0.0000
     18 H18        10.2970   21.4930   66.1110 H         1 <0>         0.0000
     19 H19        11.7660   20.7960   65.9530 H         1 <0>         0.0000
     20 H20        10.3970   20.5710   62.6450 H         1 <0>         0.0000
     21 H21        11.0250   19.7040   63.8780 H         1 <0>         0.0000
     22 H22         9.5570   20.4010   64.0350 H         1 <0>         0.0000
     23 H23        13.1520   21.2590   63.6550 H         1 <0>         0.0000
     24 H24        12.4060   22.1410   62.5010 H         1 <0>         0.0000
     25 H25        10.5180   22.5220   63.9870 H         1 <0>         0.0000
     26 H26        18.6960   27.6170   64.9560 H         1 <0>         0.0000
     27 C1         16.8630   24.1570   64.3790 C.ar      1 <0>         0.0000
     28 C2         15.5650   26.7180   64.3710 C.ar      1 <0>         0.0000
     29 C3         15.4450   24.2740   64.1660 C.ar      1 <0>         0.0000
     30 C4         14.8860   25.5040   64.2230 C.ar      1 <0>         0.0000
     31 C5         17.5280   25.3300   64.5350 C.ar      1 <0>         0.0000
     32 C6         16.9480   26.5880   64.5940 C.ar      1 <0>         0.0000
     33 C7         15.5360   20.0470   66.1820 C.3       1 <0>         0.0000
     34 C8         14.7310   22.6630   66.5670 C.3       1 <0>         0.0000
     35 C9         15.3040   20.8410   65.0140 C.2       1 <0>         0.0000
     36 C10        14.9600   21.8410   67.7180 C.2       1 <0>         0.0000
     37 C11        15.3660   20.5290   67.5190 C.2       1 <0>         0.0000
     38 C12        14.9070   22.1330   65.2420 C.2       1 <0>         0.0000
     39 C13        15.5900   19.5220   68.6280 C.2       1 <0>         0.0000
     40 C14        15.9850   19.9540   69.8420 C.2       1 <0>         0.0000
     41 C15        16.1560   18.9160   70.9030 C.2       1 <0>         0.0000
     42 C16        13.3590   25.6900   64.0640 C.3       1 <0>         0.0000
     43 C17        12.8540   24.4930   63.2670 C.3       1 <0>         0.0000
     44 C18        14.6410   23.0730   64.1130 C.3       1 <0>         0.0000
     45 C19        19.0890   25.1160   64.6630 C.3       1 <0>         0.0000
     46 C20        11.2150   21.6000   65.7290 C.3       1 <0>         0.0000
     47 C21        10.4700   20.5010   63.6400 C.3       1 <0>         0.0000
     48 C22        12.5390   22.0310   63.4860 C.3       1 <0>         0.0000
     49 C23        11.1200   21.7480   64.1860 C.3       1 <0>         0.0000
     50 N1         13.1360   23.2590   64.0390 N.4       1 <0>         0.0000
     51 O1         15.8860   17.7150   70.6970 O.co2     1 <0>         0.0000
     52 O2         16.5490   19.3520   72.0840 O.co2     1 <0>         0.0000
     53 O3         17.7130   27.7060   64.7970 O.3       1 <0>         0.0000
     54 H27        16.5824   19.7144   66.1147 H         1 <0>         0.0000
     55 H28        15.4108   23.5234   66.6546 H         1 <0>         0.0000
     56 H29        12.7954   23.3855   64.9707 H         1 <0>         0.0000
@<TRIPOS>BOND
     1    1   27 1
     2    2   28 1
     3    3   33 1
     4    4   34 1
     5    5   35 1
     6    6   36 1
     7    7   39 1
     8    8   40 1
     9    9   42 1
    10   10   42 1
    11   11   43 1
    12   12   43 1
    13   13   44 1
    14   14   45 1
    15   15   45 1
    16   16   45 1
    17   17   46 1
    18   18   46 1
    19   19   46 1
    20   20   47 1
    21   21   47 1
    22   22   47 1
    23   23   48 1
    24   24   48 1
    25   25   49 1
    26   26   53 1
    27   27   29 ar
    28   27   31 ar
    29   28   30 ar
    30   28   32 ar
    31   29   30 ar
    32   29   44 1
    33   30   42 1
    34   31   32 ar
    35   31   45 1
    36   32   53 1
    37   33   35 1
    38   33   37 1
    39   34   36 1
    40   34   38 1
    41   35   38 2
    42   36   37 2
    43   37   39 1
    44   38   44 1
    45   39   40 2
    46   40   41 1
    47   41   51 1
    48   41   52 2
    49   42   43 1
    50   43   50 1
    51   44   50 1
    52   46   49 1
    53   47   49 1
    54   48   49 1
    55   48   50 1
    56   33   54 1
    57   34   55 1
    58   50   56 1
