@<TRIPOS>MOLECULE
****
   51    54     0     0     0
SMALL
NO_CHARGES

@<TRIPOS>ATOM
      1 H1        -38.5600    9.4540  -29.8480 H         1 <0>         0.0000
      2 H2        -41.2070    6.2490  -29.9400 H         1 <0>         0.0000
      3 H3        -38.4230    9.2610  -27.4720 H         1 <0>         0.0000
      4 H4        -41.0010    6.0060  -27.5660 H         1 <0>         0.0000
      5 H5        -41.9150    8.8250  -25.8580 H         1 <0>         0.0000
      6 H6        -37.2580    6.6590  -27.8260 H         1 <0>         0.0000
      7 H7        -37.6760    4.8320  -24.1000 H         1 <0>         0.0000
      8 H8        -42.5690   10.9720  -25.0000 H         1 <0>         0.0000
      9 H9        -36.4850    4.5920  -28.7580 H         1 <0>         0.0000
     10 H10       -36.8260    2.7740  -25.0220 H         1 <0>         0.0000
     11 H11       -38.7450   11.4800  -23.4610 H         1 <0>         0.0000
     12 H12       -39.6270    8.9820  -31.9740 H         1 <0>         0.0000
     13 H13       -40.8750    6.3890  -32.0810 H         1 <0>         0.0000
     14 H14       -37.0150    9.6660  -25.0340 H         1 <0>         0.0000
     15 H15       -37.2310    9.6340  -23.4160 H         1 <0>         0.0000
     16 H16       -36.3670    7.5570  -24.4240 H         1 <0>         0.0000
     17 H17       -37.6330    7.3790  -23.4090 H         1 <0>         0.0000
     18 H18       -41.3960    6.6230  -25.2970 H         1 <0>         0.0000
     19 H19       -40.2180    5.5020  -25.4450 H         1 <0>         0.0000
     20 H20       -40.3190    6.4050  -24.0890 H         1 <0>         0.0000
     21 H21       -41.9090   13.0620  -23.7660 H         1 <0>         0.0000
     22 C1        -39.0950    8.7540  -29.3750 C.ar      1 <0>         0.0000
     23 C2        -40.6270    6.8810  -29.4260 C.ar      1 <0>         0.0000
     24 C3        -38.9930    8.6170  -27.9830 C.ar      1 <0>         0.0000
     25 C4        -40.4980    6.7340  -28.0320 C.ar      1 <0>         0.0000
     26 C5        -41.2510    9.3760  -25.3520 C.ar      1 <0>         0.0000
     27 C6        -37.1830    5.8500  -27.2440 C.ar      1 <0>         0.0000
     28 C7        -37.4180    4.7870  -25.0650 C.ar      1 <0>         0.0000
     29 C8        -41.6380   10.6350  -24.8580 C.ar      1 <0>         0.0000
     30 C9        -36.7240    4.6450  -27.7890 C.ar      1 <0>         0.0000
     31 C10       -36.9330    3.5790  -25.6060 C.ar      1 <0>         0.0000
     32 C11       -39.4050   10.9270  -23.9700 C.ar      1 <0>         0.0000
     33 C12       -39.9450    7.9120  -30.1030 C.ar      1 <0>         0.0000
     34 C13       -39.6730    7.5950  -27.2810 C.ar      1 <0>         0.0000
     35 C14       -39.9380    8.8690  -25.1490 C.ar      1 <0>         0.0000
     36 C15       -39.0110    9.6810  -24.4760 C.ar      1 <0>         0.0000
     37 C16       -37.5410    5.9350  -25.8800 C.ar      1 <0>         0.0000
     38 C17       -40.6980   11.4120  -24.1620 C.ar      1 <0>         0.0000
     39 C18       -36.6010    3.5120  -26.9710 C.ar      1 <0>         0.0000
     40 C19       -39.9890    8.1250  -31.6070 C.2       1 <0>         0.0000
     41 C20       -40.4880    7.2250  -32.4700 C.2       1 <0>         0.0000
     42 C21       -40.5170    7.3570  -33.9400 C.2       1 <0>         0.0000
     43 C22       -37.5530    9.2700  -24.2900 C.3       1 <0>         0.0000
     44 C23       -37.3400    7.7450  -24.2920 C.3       1 <0>         0.0000
     45 C24       -39.5010    7.4810  -25.7270 C.3       1 <0>         0.0000
     46 C25       -40.4440    6.4050  -25.0810 C.3       1 <0>         0.0000
     47 N1        -38.0950    7.0750  -25.3510 N.pl3     1 <0>         0.0000
     48 O1        -40.0290    8.3330  -34.4960 O.co2     1 <0>         0.0000
     49 O2        -41.0430    6.3550  -34.6450 O.co2     1 <0>         0.0000
     50 O3        -40.9950   12.6750  -23.6460 O.3       1 <0>         0.0000
     51 F1        -36.1900    2.3700  -27.5110 F         1 <0>         0.0000
@<TRIPOS>BOND
     1    1   22 1
     2    2   23 1
     3    3   24 1
     4    4   25 1
     5    5   26 1
     6    6   27 1
     7    7   28 1
     8    8   29 1
     9    9   30 1
    10   10   31 1
    11   11   32 1
    12   12   40 1
    13   13   41 1
    14   14   43 1
    15   15   43 1
    16   16   44 1
    17   17   44 1
    18   18   46 1
    19   19   46 1
    20   20   46 1
    21   21   50 1
    22   22   24 ar
    23   22   33 ar
    24   23   25 ar
    25   23   33 ar
    26   24   34 ar
    27   25   34 ar
    28   26   29 ar
    29   26   35 ar
    30   27   30 ar
    31   27   37 ar
    32   28   31 ar
    33   28   37 ar
    34   29   38 ar
    35   30   39 ar
    36   31   39 ar
    37   32   36 ar
    38   32   38 ar
    39   33   40 1
    40   34   45 1
    41   35   36 ar
    42   35   45 1
    43   36   43 1
    44   37   47 1
    45   38   50 1
    46   39   51 1
    47   40   41 2
    48   41   42 1
    49   42   48 1
    50   42   49 2
    51   43   44 1
    52   44   47 1
    53   45   46 1
    54   45   47 1
