#	Name:			<unnamed>
#	Creating user name:	vkhoa
#	Creation time:		Mon Sep 23 10:33:14 2019

#	Modifying user name:	vkhoa
#	Modification time:	Mon Sep 23 10:39:08 2019

@<TRIPOS>MOLECULE
****
   73    76     1     0     1
SMALL
NO_CHARGES


@<TRIPOS>ATOM
      1 H1         36.4885    1.5830   27.1926 H         1 <1>         0.0000 
      2 H2         35.8105    0.4540   29.1686 H         1 <1>         0.0000 
      3 H3         34.8495    2.1550   25.5526 H         1 <1>         0.0000 
      4 H4         33.5025   -0.1490   29.4806 H         1 <1>         0.0000 
      5 H5         32.5935    1.3930   25.7096 H         1 <1>         0.0000 
      6 H6         32.8870   -2.2820   26.9520 H         1 <1>         0.0000 
      7 H7         30.2780   -0.5750   24.2370 H         1 <1>         0.0000 
      8 H8         34.0820   -3.3220   25.2170 H         1 <1>         0.0000 
      9 H9         31.4960   -1.5510   22.4220 H         1 <1>         0.0000 
     10 H10        29.4183   -3.0364   26.3698 H         1 <1>         0.0000 
     11 H11        28.5829    1.0585   27.3333 H         1 <1>         0.0000 
     12 H12        26.9705   -3.4352   26.3800 H         1 <1>         0.0000 
     13 H13        25.8694    1.5978   27.7014 H         1 <1>         0.0000 
     14 H14        38.6824   -3.7325   19.5423 H         1 <1>         0.0000 
     15 H15        30.1305    2.2224   29.9315 H         1 <1>         0.0000 
     16 H16        31.4655    2.3764   29.0045 H         1 <1>         0.0000 
     17 H17        29.9985    2.2164   28.3045 H         1 <1>         0.0000 
     18 H18        41.4420   -3.1330   23.8870 H         1 <1>         0.0000 
     19 H19        40.6610   -2.4710   25.1600 H         1 <1>         0.0000 
     20 H20        40.6630   -4.0910   24.9550 H         1 <1>         0.0000 
     21 H21        37.4210   -3.1320   23.8430 H         1 <1>         0.0000 
     22 H22        38.1690   -4.0910   24.9330 H         1 <1>         0.0000 
     23 H23        38.1670   -2.4710   25.1370 H         1 <1>         0.0000 
     24 H24        37.5510   -2.6750   22.0550 H         1 <1>         0.0000 
     25 H25        38.4770   -1.9150   20.9440 H         1 <1>         0.0000 
     26 H26        36.4720   -3.6620   19.0260 H         1 <1>         0.0000 
     27 H27        36.3340   -5.0430   19.8850 H         1 <1>         0.0000 
     28 H28        29.8495   -0.0456   29.1355 H         1 <1>         0.0000 
     29 H29        31.3155    0.1154   29.8355 H         1 <1>         0.0000 
     30 H30        34.0700   -4.7110   20.5680 H         1 <1>         0.0000 
     31 H31        34.1080   -3.4970   19.4770 H         1 <1>         0.0000 
     32 H32        33.2870   -1.9720   21.0580 H         1 <1>         0.0000 
     33 H33        32.3060   -3.2750   21.1230 H         1 <1>         0.0000 
     34 H34        35.7361   -3.7152   21.7985 H         1 <1>         0.0000 
     35 C1         35.5335    1.3170   27.3216 C.ar      1 <1>         0.0000 
     36 C2         35.1415    0.6580   28.4536 C.ar      1 <1>         0.0000 
     37 C3         34.5735    1.6130   26.3466 C.ar      1 <1>         0.0000 
     38 C4         33.7905    0.2630   28.6166 C.ar      1 <1>         0.0000 
     39 C5         33.2495    1.1850   26.4346 C.ar      1 <1>         0.0000 
     40 C6         32.6020   -2.1400   26.0040 C.ar      1 <1>         0.0000 
     41 C7         31.0840   -1.1340   24.4310 C.ar      1 <1>         0.0000 
     42 C8         33.2880   -2.7510   25.0080 C.ar      1 <1>         0.0000 
     43 C9         31.7730   -1.7250   23.3670 C.ar      1 <1>         0.0000 
     44 C10        31.4810   -1.2980   25.7300 C.ar      1 <1>         0.0000 
     45 C11        32.8535    0.4370   27.5966 C.ar      1 <1>         0.0000 
     46 C12        32.8610   -2.5680   23.6490 C.ar      1 <1>         0.0000 
     47 C13        28.7367   -2.2302   26.6158 C.ar      1 <1>         0.0000 
     48 C14        28.2567    0.0398   27.1578 C.ar      1 <1>         0.0000 
     49 C15        27.3607   -2.4532   26.6218 C.ar      1 <1>         0.0000 
     50 C16        25.8477    0.5468   27.4368 C.ar      1 <1>         0.0000 
     51 C17        26.9507   -0.2042   27.1678 C.ar      1 <1>         0.0000 
     52 C18        29.2427   -0.9372   26.9348 C.ar      1 <1>         0.0000 
     53 C19        26.5077   -1.4402   26.9308 C.ar      1 <1>         0.0000 
     54 C20        38.0570   -3.9130   20.4290 C.3       1 <1>         0.0000 
     55 C21        30.7211   -0.6398   26.8567 C.2       1 <1>         0.0000 
     56 C22        31.4006    0.0625   27.7662 C.2       1 <1>         0.0000 
     57 C23        39.5720   -3.0020   22.3140 C.2       1 <1>         0.0000 
     58 C24        30.5685    1.9404   29.0785 C.3       1 <1>         0.0000 
     59 C25        40.6440   -3.2090   24.4850 C.3       1 <1>         0.0000 
     60 C26        38.2020   -3.2090   24.4630 C.3       1 <1>         0.0000 
     61 C27        38.3450   -2.7660   21.4530 C.3       1 <1>         0.0000 
     62 C28        36.5570   -4.0700   19.9350 C.3       1 <1>         0.0000 
     63 C29        30.7405    0.4034   29.0705 C.3       1 <1>         0.0000 
     64 C30        34.2270   -3.7320   20.4420 C.3       1 <1>         0.0000 
     65 C31        33.2360   -2.9440   21.2850 C.3       1 <1>         0.0000 
     66 N1         24.7127   -0.1982   27.3288 N.ar      1 <1>         0.0000 
     67 N2         25.1707   -1.3982   26.9708 N.ar      1 <1>         0.0000 
     68 N3         39.4430   -3.1110   23.6970 N.am      1 <1>         0.0000 
     69 N4         35.5850   -3.3960   20.8630 N.4       1 <1>         0.0000 
     70 O1         40.6730   -2.9290   21.7540 O.2       1 <1>         0.0000 
     71 O2         33.6100   -3.1550   22.6850 O.3       1 <1>         0.0000 
     72 H35        38.3535   -4.8619   20.8998 H         1 <1>         0.0000 
     73 H38        35.7141   -2.4051   20.8240 H         1 <1>         0.0000 
@<TRIPOS>BOND
     1   35    1 1    
     2   36    2 1    
     3   37    3 1    
     4   38    4 1    
     5   39    5 1    
     6   40    6 1    
     7   41    7 1    
     8   42    8 1    
     9   43    9 1    
    10   47   10 1    
    11   48   11 1    
    12   49   12 1    
    13   50   13 1    
    14   54   14 1    
    15   58   15 1    
    16   58   16 1    
    17   58   17 1    
    18   59   18 1    
    19   59   19 1    
    20   59   20 1    
    21   60   21 1    
    22   60   22 1    
    23   60   23 1    
    24   61   24 1    
    25   61   25 1    
    26   62   26 1    
    27   62   27 1    
    28   63   28 1    
    29   63   29 1    
    30   64   30 1    
    31   64   31 1    
    32   65   32 1    
    33   65   33 1    
    34   69   34 1    
    35   36   35 ar   
    36   37   35 ar   
    37   38   36 ar   
    38   39   37 ar   
    39   45   38 ar   
    40   45   39 ar   
    41   42   40 ar   
    42   40   44 ar   
    43   43   41 ar   
    44   41   44 ar   
    45   46   42 ar   
    46   46   43 ar   
    47   44   55 1    
    48   56   45 1    
    49   71   46 1    
    50   47   49 ar   
    51   52   47 ar   
    52   48   51 ar   
    53   52   48 ar   
    54   49   53 ar   
    55   51   50 ar   
    56   50   66 ar   
    57   51   53 ar   
    58   55   52 1    
    59   53   67 ar   
    60   54   61 1    
    61   62   54 1    
    62   55   56 2    
    63   56   63 1    
    64   61   57 1    
    65   57   68 am   
    66   57   70 2    
    67   63   58 1    
    68   68   59 1    
    69   68   60 1    
    70   69   62 1    
    71   65   64 1    
    72   64   69 1    
    73   65   71 1    
    74   66   67 ar   
    75   54   72 1    
    76   69   73 1    
@<TRIPOS>SUBSTRUCTURE
     1 ****       30 TEMP              0 ****  ****    0 ROOT 
@<TRIPOS>SET
LAB$A_TYPE      STATIC     ATOMS    LABELGROUP SYSTEM 
75 1 2 3 4 5 6 7 8 9 10 11 12 13 14 15 16 17 18 19 \
 20 21 22 23 24 25 26 27 28 29 30 31 32 33 34 35 36 37 \
 38 39 40 41 42 43 44 45 46 47 48 49 50 51 52 53 54 55 \
 56 57 58 59 60 61 62 63 64 65 66 67 68 69 70 71 72 0 \
 0 73
