@<TRIPOS>MOLECULE
****
   47    51     0     0     0
SMALL
NO_CHARGES

@<TRIPOS>ATOM
      1 H1        -19.4260  -28.8350  -58.1820 H         1 <0>         0.0000
      2 H2        -22.2320  -31.3450  -50.8730 H         1 <0>         0.0000
      3 H3        -16.5100  -35.0410  -55.0090 H         1 <0>         0.0000
      4 H4        -18.5290  -32.1660  -57.8290 H         1 <0>         0.0000
      5 H5        -20.4130  -30.4490  -59.6420 H         1 <0>         0.0000
      6 H6        -17.4070  -35.0550  -52.8080 H         1 <0>         0.0000
      7 H7        -19.7570  -29.0120  -55.8200 H         1 <0>         0.0000
      8 H8        -17.5620  -32.2300  -60.0200 H         1 <0>         0.0000
      9 H9        -23.3660  -29.7890  -52.2810 H         1 <0>         0.0000
     10 H10       -19.2570  -32.1480  -56.0640 H         1 <0>         0.0000
     11 H11       -22.0360  -32.4100  -56.3940 H         1 <0>         0.0000
     12 H12       -20.6280  -32.9610  -50.5180 H         1 <0>         0.0000
     13 H13       -15.8280  -35.0580  -56.6110 H         1 <0>         0.0000
     14 H14       -15.9580  -33.1420  -61.4900 H         1 <0>         0.0000
     15 H15       -14.8410  -34.3480  -60.9430 H         1 <0>         0.0000
     16 C1        -19.9700  -29.5850  -57.8070 C.ar      1 <0>         0.0000
     17 C2        -21.9580  -31.2430  -51.8290 C.2       1 <0>         0.0000
     18 C3        -17.2720  -34.4370  -54.7750 C.ar      1 <0>         0.0000
     19 C4        -17.7660  -32.7830  -58.0220 C.ar      1 <0>         0.0000
     20 C5        -20.5450  -30.5240  -58.6540 C.ar      1 <0>         0.0000
     21 C6        -17.7940  -34.4400  -53.4950 C.ar      1 <0>         0.0000
     22 C7        -20.1570  -29.6960  -56.4300 C.ar      1 <0>         0.0000
     23 C8        -17.2090  -32.8180  -59.2920 C.ar      1 <0>         0.0000
     24 C9        -22.6150  -30.3400  -52.6440 C.2       1 <0>         0.0000
     25 C10       -18.8710  -32.7570  -55.3710 C.ar      1 <0>         0.0000
     26 C11       -21.4790  -31.6660  -56.7640 C.ar      1 <0>         0.0000
     27 C12       -20.3080  -32.8960  -51.4630 C.ar      1 <0>         0.0000
     28 C13       -16.2010  -34.4570  -57.3180 C.ar      1 <0>         0.0000
     29 C14       -20.9170  -32.0080  -52.3400 C.ar      1 <0>         0.0000
     30 C15       -19.4130  -32.7400  -54.0830 C.ar      1 <0>         0.0000
     31 C16       -17.8080  -33.5950  -55.7280 C.ar      1 <0>         0.0000
     32 C17       -17.2640  -33.6070  -57.0140 C.ar      1 <0>         0.0000
     33 C18       -21.3020  -31.5660  -58.1340 C.ar      1 <0>         0.0000
     34 C19       -18.8460  -33.6040  -53.1480 C.ar      1 <0>         0.0000
     35 C20       -20.4870  -31.9070  -53.6780 C.ar      1 <0>         0.0000
     36 C21       -20.8970  -30.7510  -55.8940 C.ar      1 <0>         0.0000
     37 C22       -16.1570  -33.6820  -59.5310 C.ar      1 <0>         0.0000
     38 C23       -22.2260  -30.2030  -53.9670 C.2       1 <0>         0.0000
     39 C24       -21.9300  -32.5950  -59.0310 C.3       1 <0>         0.0000
     40 N1        -19.2960  -33.6640  -51.8770 N.ar      1 <0>         0.0000
     41 N2        -15.6760  -34.4750  -58.5490 N.ar      1 <0>         0.0000
     42 N3        -21.1630  -30.9560  -54.5120 N.am      1 <0>         0.0000
     43 N4        -15.6040  -33.7280  -60.7610 N.pl3     1 <0>         0.0000
     44 O1        -22.8280  -29.3840  -54.6900 O.2       1 <0>         0.0000
     45 F1        -20.9880  -33.4070  -59.4740 F         1 <0>         0.0000
     46 F2        -22.5300  -32.0190  -60.0610 F         1 <0>         0.0000
     47 F3        -22.8200  -33.2940  -58.3450 F         1 <0>         0.0000
@<TRIPOS>BOND
     1    1   16 1
     2    2   17 1
     3    3   18 1
     4    4   19 1
     5    5   20 1
     6    6   21 1
     7    7   22 1
     8    8   23 1
     9    9   24 1
    10   10   25 1
    11   11   26 1
    12   12   27 1
    13   13   28 1
    14   14   43 1
    15   15   43 1
    16   16   20 ar
    17   16   22 ar
    18   17   24 2
    19   17   29 1
    20   18   21 ar
    21   18   31 ar
    22   19   23 ar
    23   19   32 ar
    24   20   33 ar
    25   21   34 ar
    26   22   36 ar
    27   23   37 ar
    28   24   38 1
    29   25   30 ar
    30   25   31 ar
    31   26   33 ar
    32   26   36 ar
    33   27   29 ar
    34   27   40 ar
    35   28   32 ar
    36   28   41 ar
    37   29   35 ar
    38   30   34 ar
    39   30   35 ar
    40   31   32 1
    41   33   39 1
    42   34   40 ar
    43   35   42 1
    44   36   42 1
    45   37   41 ar
    46   37   43 1
    47   38   42 am
    48   38   44 2
    49   39   45 1
    50   39   46 1
    51   39   47 1
