@<TRIPOS>MOLECULE
****
   30    31     0     0     0
SMALL
NO_CHARGES

@<TRIPOS>ATOM
      1 H1          6.5480    3.2010   10.1190 H         1 <0>         0.0000
      2 H2          7.8650   -0.3710    8.5480 H         1 <0>         0.0000
      3 H3          2.9570    2.7330   12.5690 H         1 <0>         0.0000
      4 H4          4.2540    1.9370   10.7700 H         1 <0>         0.0000
      5 H5          3.3860    1.9030   14.7750 H         1 <0>         0.0000
      6 H6          9.4320    2.1610    6.4420 H         1 <0>         0.0000
      7 H7          9.9160    0.7980    7.2010 H         1 <0>         0.0000
      8 H8          8.6270    0.7610    6.1990 H         1 <0>         0.0000
      9 H9          9.7930    3.3380    7.1510 H         1 <0>         0.0000
     10 H10         9.6630    5.0560    6.9710 H         1 <0>         0.0000
     11 C1          6.9250    1.1200    9.7150 C.3       1 <0>         0.0000
     12 C2          7.0140    2.5280    9.5450 C.2       1 <0>         0.0000
     13 C3          7.7110    0.6030    8.7150 C.2       1 <0>         0.0000
     14 C4          3.6810    2.0620   12.7310 C.ar      1 <0>         0.0000
     15 C5          4.4500    1.5970   11.6900 C.ar      1 <0>         0.0000
     16 C6          3.9250    1.5890   13.9940 C.ar      1 <0>         0.0000
     17 C7          5.4700    0.6940   11.8400 C.ar      1 <0>         0.0000
     18 C8          4.9340    0.6700   14.1530 C.ar      1 <0>         0.0000
     19 C9          5.7150    0.2140   13.1110 C.ar      1 <0>         0.0000
     20 C10         7.8330    2.8380    8.4760 C.2       1 <0>         0.0000
     21 C11         6.2190    0.2480   10.6340 C.2       1 <0>         0.0000
     22 C12         8.1390    4.1790    8.0370 C.2       1 <0>         0.0000
     23 C13         9.1240    1.3110    6.8700 C.3       1 <0>         0.0000
     24 N1          8.2490    1.6210    7.9850 N.pl3     1 <0>         0.0000
     25 N2          9.3020    4.1920    7.3230 N.am      1 <0>         0.0000
     26 O1          6.1640   -0.9450   10.3830 O.2       1 <0>         0.0000
     27 O2          7.5280    5.2200    8.2540 O.2       1 <0>         0.0000
     28 Cl1         5.2210    0.1040   15.7370 Cl        1 <0>         0.0000
     29 Cl2         6.9550   -0.9250   13.4800 Cl        1 <0>         0.0000
     30 H11         6.9250    1.1200    9.7150 H         1 <0>         0.0000
@<TRIPOS>BOND
     1    1   12 1
     2    2   13 1
     3    3   14 1
     4    4   15 1
     5    5   16 1
     6    6   23 1
     7    7   23 1
     8    8   23 1
     9    9   25 1
    10   10   25 1
    11   11   12 1
    12   11   13 1
    13   11   21 1
    14   12   20 2
    15   13   24 2
    16   14   15 ar
    17   14   16 ar
    18   15   17 ar
    19   16   18 ar
    20   17   19 ar
    21   17   21 1
    22   18   19 ar
    23   18   28 1
    24   19   29 1
    25   20   22 1
    26   20   24 1
    27   21   26 2
    28   22   25 am
    29   22   27 2
    30   23   24 1
    31   11   30 1
