@<TRIPOS>MOLECULE
****
   35    38     0     0     0
SMALL
NO_CHARGES

@<TRIPOS>ATOM
      1 H1        -13.2220   -8.8950   -1.1520 H         1 <0>         0.0000
      2 H2        -15.0700   -8.8130   -2.6630 H         1 <0>         0.0000
      3 H3        -12.9250   -7.1610    0.4660 H         1 <0>         0.0000
      4 H4        -16.6130   -6.9950   -2.5810 H         1 <0>         0.0000
      5 H5        -19.1500   -4.9710   -0.9990 H         1 <0>         0.0000
      6 H6        -20.8590   -6.6790   -0.7970 H         1 <0>         0.0000
      7 H7        -15.2780   -3.4840    1.6580 H         1 <0>         0.0000
      8 H8        -16.2020   -4.8300    1.6740 H         1 <0>         0.0000
      9 H9        -15.6460   -3.2290   -0.6680 H         1 <0>         0.0000
     10 H10       -17.2660   -2.0450    0.3680 H         1 <0>         0.0000
     11 H11       -18.1240   -2.9740   -0.6650 H         1 <0>         0.0000
     12 H12       -19.4300   -2.0890    4.9870 H         1 <0>         0.0000
     13 C1        -13.8690   -8.1340   -1.1100 C.ar      1 <0>         0.0000
     14 C2        -14.9440   -8.0840   -1.9910 C.ar      1 <0>         0.0000
     15 C3        -13.6950   -7.1250   -0.1710 C.ar      1 <0>         0.0000
     16 C4        -15.8440   -7.0250   -1.9420 C.ar      1 <0>         0.0000
     17 C5        -19.6010   -5.1850   -0.1320 C.2       1 <0>         0.0000
     18 C6        -20.5360   -6.1230   -0.0310 C.2       1 <0>         0.0000
     19 C7        -19.2920   -4.5210    1.0510 C.2       1 <0>         0.0000
     20 C8        -14.5970   -6.0620   -0.1180 C.ar      1 <0>         0.0000
     21 C9        -15.6800   -6.0030   -1.0050 C.ar      1 <0>         0.0000
     22 C10       -20.0480   -4.9860    2.1220 C.2       1 <0>         0.0000
     23 C11       -19.8700   -4.4150    3.4140 C.2       1 <0>         0.0000
     24 C12       -18.2380   -2.9740    2.5380 C.2       1 <0>         0.0000
     25 C13       -15.5680   -4.2820    1.1290 C.3       1 <0>         0.0000
     26 C14       -16.2800   -3.8090   -0.1560 C.3       1 <0>         0.0000
     27 C15       -17.5490   -2.9800    0.1530 C.3       1 <0>         0.0000
     28 N1        -18.3620   -3.4890    1.2860 N.am      1 <0>         0.0000
     29 N2        -18.9710   -3.4240    3.5840 N.am      1 <0>         0.0000
     30 O1        -20.5270   -4.8160    4.3640 O.2       1 <0>         0.0000
     31 O2        -17.4380   -2.0780    2.7440 O.2       1 <0>         0.0000
     32 O3        -14.4170   -5.0760    0.8020 O.3       1 <0>         0.0000
     33 O4        -16.5820   -4.9640   -0.9630 O.3       1 <0>         0.0000
     34 O5        -18.8030   -2.8600    4.8760 O.3       1 <0>         0.0000
     35 S1        -21.1180   -6.2620    1.5660 S.3       1 <0>         0.0000
@<TRIPOS>BOND
     1    1   13 1
     2    2   14 1
     3    3   15 1
     4    4   16 1
     5    5   17 1
     6    6   18 1
     7    7   25 1
     8    8   25 1
     9    9   26 1
    10   10   27 1
    11   11   27 1
    12   12   34 1
    13   13   14 ar
    14   13   15 ar
    15   14   16 ar
    16   15   20 ar
    17   16   21 ar
    18   17   18 2
    19   17   19 1
    20   18   35 1
    21   19   22 2
    22   19   28 1
    23   20   21 ar
    24   20   32 1
    25   21   33 1
    26   22   23 1
    27   22   35 1
    28   23   29 am
    29   23   30 2
    30   24   28 am
    31   24   29 am
    32   24   31 2
    33   25   26 1
    34   25   32 1
    35   26   27 1
    36   26   33 1
    37   27   28 1
    38   29   34 1
