@<TRIPOS>MOLECULE
****
   37    37     0     0     0
SMALL
NO_CHARGES

@<TRIPOS>ATOM
      1 H1         32.4980   33.1030  -20.2050 H         1 <0>         0.0000
      2 H2         33.5600   33.6340  -21.3260 H         1 <0>         0.0000
      3 H3         30.8760   34.6150  -20.9090 H         1 <0>         0.0000
      4 H4         32.7130   35.7400  -22.8010 H         1 <0>         0.0000
      5 H5         32.0810   36.9290  -20.2650 H         1 <0>         0.0000
      6 H6         34.5410   35.7340  -21.1710 H         1 <0>         0.0000
      7 H7         34.4700   31.3110  -15.1220 H         1 <0>         0.0000
      8 H8         32.9720   31.4850  -15.7490 H         1 <0>         0.0000
      9 H9         34.1250   30.7000  -16.5960 H         1 <0>         0.0000
     10 H10        35.6270   36.4890  -19.2060 H         1 <0>         0.0000
     11 H11        35.0930   37.7890  -20.0390 H         1 <0>         0.0000
     12 H12        35.3550   32.7400  -16.8140 H         1 <0>         0.0000
     13 H13        34.2020   33.5250  -15.9660 H         1 <0>         0.0000
     14 H14        33.6800   32.3120  -18.5470 H         1 <0>         0.0000
     15 H15        32.6610   33.2930  -17.7290 H         1 <0>         0.0000
     16 H16        34.3890   35.0350  -17.9350 H         1 <0>         0.0000
     17 H17        35.1270   34.0530  -19.0110 H         1 <0>         0.0000
     18 H18        32.1840   33.6510  -23.2180 H         1 <0>         0.0000
     19 H19        31.2010   37.4360  -22.9370 H         1 <0>         0.0000
     20 H20        32.1970   38.6190  -21.5800 H         1 <0>         0.0000
     21 H21        33.4140   36.7480  -18.0600 H         1 <0>         0.0000
     22 C1         32.8370   33.9080  -20.6920 C.3       1 <0>         0.0000
     23 C2         31.6840   34.5270  -21.4910 C.3       1 <0>         0.0000
     24 C3         32.0650   35.8830  -22.0530 C.3       1 <0>         0.0000
     25 C4         32.7340   36.7660  -21.0050 C.3       1 <0>         0.0000
     26 C5         33.9670   36.0570  -20.4180 C.3       1 <0>         0.0000
     27 C6         33.9480   31.4530  -15.9630 C.3       1 <0>         0.0000
     28 C7         34.8150   36.9890  -19.5070 C.3       1 <0>         0.0000
     29 C8         34.3760   32.7850  -16.6150 C.3       1 <0>         0.0000
     30 C9         33.6210   33.1010  -17.9350 C.3       1 <0>         0.0000
     31 C10        34.2460   34.3220  -18.6210 C.3       1 <0>         0.0000
     32 N1         33.4000   34.8710  -19.7020 N.4       1 <0>         0.0000
     33 O1         31.3780   33.7170  -22.6300 O.3       1 <0>         0.0000
     34 O2         30.9290   36.5460  -22.5720 O.3       1 <0>         0.0000
     35 O3         32.9950   38.0230  -21.6690 O.3       1 <0>         0.0000
     36 O4         34.0810   37.4440  -18.3260 O.3       1 <0>         0.0000
     37 H22        32.5972   35.2327  -19.2281 H         1 <0>         0.0000
@<TRIPOS>BOND
     1    1   22 1
     2    2   22 1
     3    3   23 1
     4    4   24 1
     5    5   25 1
     6    6   26 1
     7    7   27 1
     8    8   27 1
     9    9   27 1
    10   10   28 1
    11   11   28 1
    12   12   29 1
    13   13   29 1
    14   14   30 1
    15   15   30 1
    16   16   31 1
    17   17   31 1
    18   18   33 1
    19   19   34 1
    20   20   35 1
    21   21   36 1
    22   22   23 1
    23   22   32 1
    24   23   24 1
    25   23   33 1
    26   24   25 1
    27   24   34 1
    28   25   26 1
    29   25   35 1
    30   26   28 1
    31   26   32 1
    32   27   29 1
    33   28   36 1
    34   29   30 1
    35   30   31 1
    36   31   32 1
    37   32   37 1
