@<TRIPOS>MOLECULE
****
   25    25     0     0     0
SMALL
NO_CHARGES

@<TRIPOS>ATOM
      1 H1         10.0560   -8.7100   38.3760 H         1 <0>         0.0000
      2 H2          8.7280   -9.5980   38.7140 H         1 <0>         0.0000
      3 H3         10.6350   -7.8110   41.6780 H         1 <0>         0.0000
      4 H4         11.3290   -7.7990   40.2000 H         1 <0>         0.0000
      5 H5         11.2030  -10.5220   38.0530 H         1 <0>         0.0000
      6 H6         11.7400   -9.6620   42.3180 H         1 <0>         0.0000
      7 H7         10.4410  -11.4880   40.6690 H         1 <0>         0.0000
      8 H8         12.8920  -10.2800   39.7790 H         1 <0>         0.0000
      9 H9          9.0007   -8.3204   40.4547 H         1 <0>         0.0000
     10 H10         9.2170  -11.2270   37.2620 H         1 <0>         0.0000
     11 H11        13.7430   -8.6190   40.6820 H         1 <0>         0.0000
     12 H12        11.9990  -13.1620   40.3330 H         1 <0>         0.0000
     13 H13        13.4330  -12.2470   40.8860 H         1 <0>         0.0000
     14 C1          9.6830   -9.4320   38.9590 C.3       1 <0>         0.0000
     15 C2         10.9200   -8.3780   40.9050 C.3       1 <0>         0.0000
     16 C3         10.4830  -10.7200   38.7180 C.3       1 <0>         0.0000
     17 C4         12.0070   -9.3460   41.4080 C.3       1 <0>         0.0000
     18 C5         11.1370  -11.3880   39.9580 C.3       1 <0>         0.0000
     19 C6         12.3350  -10.5910   40.5490 C.3       1 <0>         0.0000
     20 N1          9.7380   -8.9870   40.3450 N.4       1 <0>         0.0000
     21 O1          9.5550  -11.6190   38.1180 O.3       1 <0>         0.0000
     22 O2         13.2340   -8.5850   41.5420 O.3       1 <0>         0.0000
     23 O3         11.5710  -12.7000   39.5560 O.3       1 <0>         0.0000
     24 O4         13.1810  -11.4170   41.3840 O.3       1 <0>         0.0000
     25 H14         9.5454   -9.7924   40.9056 H         1 <0>         0.0000
@<TRIPOS>BOND
     1    1   14 1
     2    2   14 1
     3    3   15 1
     4    4   15 1
     5    5   16 1
     6    6   17 1
     7    7   18 1
     8    8   19 1
     9    9   20 1
    10   10   21 1
    11   11   22 1
    12   12   23 1
    13   13   24 1
    14   14   16 1
    15   14   20 1
    16   15   17 1
    17   15   20 1
    18   16   18 1
    19   16   21 1
    20   17   19 1
    21   17   22 1
    22   18   19 1
    23   18   23 1
    24   19   24 1
    25   20   25 1
