@<TRIPOS>MOLECULE
****
   91    93     0     0     0
SMALL
NO_CHARGES

@<TRIPOS>ATOM
      1 H1          0.0940    3.8330   12.3630 H         1 <0>         0.0000
      2 H2          3.4910    6.6270   16.8080 H         1 <0>         0.0000
      3 H3          5.6430    2.2490   13.5520 H         1 <0>         0.0000
      4 H4          3.6070    3.0320   14.4270 H         1 <0>         0.0000
      5 H5          6.3110    4.5650   12.5470 H         1 <0>         0.0000
      6 H6          5.0490    5.3140   15.4340 H         1 <0>         0.0000
      7 H7         -7.8540   13.5690    5.3650 H         1 <0>         0.0000
      8 H8         -6.9140   12.8870    4.2170 H         1 <0>         0.0000
      9 H9         -7.1640   12.1130    5.6330 H         1 <0>         0.0000
     10 H10         0.2690    3.8760    6.3210 H         1 <0>         0.0000
     11 H11        -0.9230    4.9770    6.5010 H         1 <0>         0.0000
     12 H12         0.6270    5.3940    6.8030 H         1 <0>         0.0000
     13 H13        -0.8070    5.1480   10.0920 H         1 <0>         0.0000
     14 H14        -0.0230    6.1620    9.0810 H         1 <0>         0.0000
     15 H15        -1.5730    5.7450    8.7790 H         1 <0>         0.0000
     16 H16        -5.5880    5.3670    6.4300 H         1 <0>         0.0000
     17 H17        -3.9680    5.1760    6.3580 H         1 <0>         0.0000
     18 H18        -3.8150   13.2980    6.0580 H         1 <0>         0.0000
     19 H19        -4.3640   12.8640    4.5820 H         1 <0>         0.0000
     20 H20         3.6500    3.6860   11.9300 H         1 <0>         0.0000
     21 H21         4.7230    4.3780   10.9120 H         1 <0>         0.0000
     22 H22        -5.9670   13.8110    6.7710 H         1 <0>         0.0000
     23 H23        -5.7170   14.5840    5.3550 H         1 <0>         0.0000
     24 H24        -5.4400    4.4040    8.6970 H         1 <0>         0.0000
     25 H25        -5.2330    3.3600    7.4600 H         1 <0>         0.0000
     26 H26        -3.3040    9.4480    6.8820 H         1 <0>         0.0000
     27 H27        -3.1890    8.9450    8.4310 H         1 <0>         0.0000
     28 H28         1.7650    4.5160    8.9090 H         1 <0>         0.0000
     29 H29         0.9930    3.3720    9.7820 H         1 <0>         0.0000
     30 H30        -5.7790    9.1580    7.2430 H         1 <0>         0.0000
     31 H31        -5.3880    9.2630    8.8250 H         1 <0>         0.0000
     32 H32        -0.8390    2.2570    8.0130 H         1 <0>         0.0000
     33 H33        -1.2820    7.0050   16.2320 H         1 <0>         0.0000
     34 H34        -2.3920    6.3270   15.0890 H         1 <0>         0.0000
     35 H35        -3.2670    7.2600    6.3630 H         1 <0>         0.0000
     36 H36        -3.4280    3.7650    9.4710 H         1 <0>         0.0000
     37 H37         5.6390    2.8560   16.3060 H         1 <0>         0.0000
     38 H38        -0.8490    2.1800   10.1610 H         1 <0>         0.0000
     39 C1          0.3300    4.3930   13.1570 C.ar      1 <0>         0.0000
     40 C2          2.7850    6.2760   16.1930 C.2       1 <0>         0.0000
     41 C3          0.8920    5.8890   15.2540 C.ar      1 <0>         0.0000
     42 C4          1.8560    5.2000   14.5660 C.ar      1 <0>         0.0000
     43 C5         -0.4390    5.7890   14.8230 C.ar      1 <0>         0.0000
     44 C6         -4.5610    6.5980    7.7430 C.2       1 <0>         0.0000
     45 C7         -2.5240    3.4010    7.7130 C.2       1 <0>         0.0000
     46 C8         -4.7000   11.4390    6.0300 C.2       1 <0>         0.0000
     47 C9          5.6240    3.1760   13.9260 C.3       1 <0>         0.0000
     48 C10         4.4370    3.4280   14.8200 C.3       1 <0>         0.0000
     49 C11         5.4200    4.2420   12.8650 C.3       1 <0>         0.0000
     50 C12         4.3710    4.9440   14.7980 C.3       1 <0>         0.0000
     51 C13        -7.0430   13.0070    5.2010 C.3       1 <0>         0.0000
     52 C14        -0.0460    4.6570    6.8600 C.3       1 <0>         0.0000
     53 C15        -0.6960    5.4250    9.1380 C.3       1 <0>         0.0000
     54 C16        -4.7470    5.3130    6.9690 C.3       1 <0>         0.0000
     55 C17        -4.5690   12.8680    5.5610 C.3       1 <0>         0.0000
     56 C18         4.6160    3.7440   11.6780 C.3       1 <0>         0.0000
     57 C19        -5.8290   13.6900    5.7880 C.3       1 <0>         0.0000
     58 C20        -4.8410    4.1440    7.9400 C.3       1 <0>         0.0000
     59 C21        -3.7420    8.9060    7.5990 C.3       1 <0>         0.0000
     60 C22         1.1240    3.7490    8.8650 C.3       1 <0>         0.0000
     61 C23        -5.1090    9.5090    7.8970 C.3       1 <0>         0.0000
     62 C24        -1.2370    3.0800    8.4190 C.3       1 <0>         0.0000
     63 C25        -0.2160    4.2350    8.3170 C.3       1 <0>         0.0000
     64 N1          1.6270    4.4170   13.4840 N.ar      1 <0>         0.0000
     65 N2         -0.6920    5.0170   13.7500 N.ar      1 <0>         0.0000
     66 N3          1.4780    6.5770   16.2960 N.2       1 <0>         0.0000
     67 N4          3.0270    5.4490   15.1660 N.pl3     1 <0>         0.0000
     68 N5         -1.4590    6.4290   15.4340 N.pl3     1 <0>         0.0000
     69 N6         -3.8130    7.5280    7.1570 N.am      1 <0>         0.0000
     70 N7         -3.5510    3.7600    8.4790 N.am      1 <0>         0.0000
     71 O1          7.0630    1.8710   16.4470 O.3       1 <0>         0.0000
     72 O2          8.1360    1.4830   14.1940 O.3       1 <0>         0.0000
     73 O3          5.4350    0.6090    9.6570 O.3       1 <0>         0.0000
     74 O4          3.2380    0.9320    7.2820 O.3       1 <0>         0.0000
     75 O5         -5.0730    6.7360    8.8390 O.2       1 <0>         0.0000
     76 O6         -2.5950    3.3140    6.5040 O.2       1 <0>         0.0000
     77 O7         -4.6060   10.4740    5.2950 O.2       1 <0>         0.0000
     78 O8          8.9950    3.3180   15.7040 O.2       1 <0>         0.0000
     79 O9          6.4110    2.9750    9.2050 O.2       1 <0>         0.0000
     80 O10         2.1510    0.8640    9.6330 O.2       1 <0>         0.0000
     81 O11         4.7130    5.3300   13.4670 O.3       1 <0>         0.0000
     82 O12         4.6560    2.9330   16.1380 O.3       1 <0>         0.0000
     83 O13        -1.5160    2.8310    9.7980 O.3       1 <0>         0.0000
     84 O14         6.8150    3.5200   14.6240 O.3       1 <0>         0.0000
     85 O15         5.0850    2.4580   11.2980 O.3       1 <0>         0.0000
     86 O16         1.6480    2.7400    8.0060 O.3       1 <0>         0.0000
     87 O17         3.9400    2.5340    9.0650 O.3       1 <0>         0.0000
     88 P1          7.8290    2.4610   15.2940 P.3       1 <0>         0.0000
     89 P2          5.3190    2.1020    9.7560 P.3       1 <0>         0.0000
     90 P3          2.7290    1.6550    8.4950 P.3       1 <0>         0.0000
     91 S1         -5.0100   11.2610    7.7570 S.3       1 <0>         0.0000
@<TRIPOS>BOND
     1    1   39 1
     2    2   40 1
     3    3   47 1
     4    4   48 1
     5    5   49 1
     6    6   50 1
     7    7   51 1
     8    8   51 1
     9    9   51 1
    10   10   52 1
    11   11   52 1
    12   12   52 1
    13   13   53 1
    14   14   53 1
    15   15   53 1
    16   16   54 1
    17   17   54 1
    18   18   55 1
    19   19   55 1
    20   20   56 1
    21   21   56 1
    22   22   57 1
    23   23   57 1
    24   24   58 1
    25   25   58 1
    26   26   59 1
    27   27   59 1
    28   28   60 1
    29   29   60 1
    30   30   61 1
    31   31   61 1
    32   32   62 1
    33   33   68 1
    34   34   68 1
    35   35   69 1
    36   36   70 1
    37   37   82 1
    38   38   83 1
    39   39   64 ar
    40   39   65 ar
    41   40   66 2
    42   40   67 1
    43   41   42 ar
    44   41   43 ar
    45   41   66 1
    46   42   64 ar
    47   42   67 1
    48   43   65 ar
    49   43   68 1
    50   44   54 1
    51   44   69 am
    52   44   75 2
    53   45   62 1
    54   45   70 am
    55   45   76 2
    56   46   55 1
    57   46   77 2
    58   46   91 1
    59   47   48 1
    60   47   49 1
    61   47   84 1
    62   48   50 1
    63   48   82 1
    64   49   56 1
    65   49   81 1
    66   50   67 1
    67   50   81 1
    68   51   57 1
    69   52   63 1
    70   53   63 1
    71   54   58 1
    72   55   57 1
    73   56   85 1
    74   58   70 1
    75   59   61 1
    76   59   69 1
    77   60   63 1
    78   60   86 1
    79   61   91 1
    80   62   63 1
    81   62   83 1
    82   71   88 1
    83   72   88 1
    84   73   89 1
    85   74   90 1
    86   78   88 2
    87   79   89 2
    88   80   90 2
    89   84   88 1
    90   85   89 1
    91   86   90 1
    92   87   89 1
    93   87   90 1
