@<TRIPOS>MOLECULE
****
   45    47     0     0     0
SMALL
NO_CHARGES

@<TRIPOS>ATOM
      1 H1         -8.7790   -5.3850   14.6490 H         1 <0>         0.0000
      2 H2        -10.2230   -3.8980   15.8180 H         1 <0>         0.0000
      3 H3         -9.6840   -7.2930   13.5560 H         1 <0>         0.0000
      4 H4        -12.5610   -4.3250   15.9120 H         1 <0>         0.0000
      5 H5        -12.0230   -7.7270   13.6390 H         1 <0>         0.0000
      6 H6        -18.2910   -4.9710   14.4300 H         1 <0>         0.0000
      7 H7        -14.6100   -5.1050   13.2520 H         1 <0>         0.0000
      8 H8        -14.3830   -6.6580   12.8040 H         1 <0>         0.0000
      9 H9        -13.9000   -8.4020   14.7060 H         1 <0>         0.0000
     10 H10       -13.9150   -7.8530   16.2440 H         1 <0>         0.0000
     11 H11       -17.4090   -7.9610   14.2260 H         1 <0>         0.0000
     12 H12       -16.0410   -8.3790   13.4380 H         1 <0>         0.0000
     13 H13       -14.3760   -5.6970   15.5090 H         1 <0>         0.0000
     14 H14       -16.5860   -5.7310   14.4220 H         1 <0>         0.0000
     15 H15       -22.4760   -3.8020   11.6690 H         1 <0>         0.0000
     16 H16       -22.5740   -4.2550   13.2350 H         1 <0>         0.0000
     17 H17       -21.9170   -2.8130   12.8420 H         1 <0>         0.0000
     18 H18       -15.5490   -9.5140   16.7540 H         1 <0>         0.0000
     19 H19       -16.9940   -9.5130   15.9930 H         1 <0>         0.0000
     20 H20       -15.6580  -10.0220   15.2050 H         1 <0>         0.0000
     21 H21       -16.5710   -6.3290   11.6070 H         1 <0>         0.0000
     22 C1        -18.9720   -5.4920   11.2930 C.2       1 <0>         0.0000
     23 C2         -9.7630   -5.5630   14.6820 C.ar      1 <0>         0.0000
     24 C3        -10.6000   -4.7030   15.3600 C.ar      1 <0>         0.0000
     25 C4        -10.2880   -6.6680   14.0500 C.ar      1 <0>         0.0000
     26 C5        -11.9630   -4.9500   15.4100 C.ar      1 <0>         0.0000
     27 C6        -11.6520   -6.9180   14.0960 C.ar      1 <0>         0.0000
     28 C7        -18.8210   -4.9510   13.5820 C.2       1 <0>         0.0000
     29 C8        -18.2280   -5.5330   12.4150 C.2       1 <0>         0.0000
     30 C9        -20.2870   -4.9040   11.2540 C.2       1 <0>         0.0000
     31 C10       -12.5080   -6.0570   14.7700 C.ar      1 <0>         0.0000
     32 C11       -14.7440   -6.0590   13.5190 C.3       1 <0>         0.0000
     33 C12       -14.3120   -7.7410   15.3330 C.3       1 <0>         0.0000
     34 C13       -16.4320   -7.7720   14.1300 C.3       1 <0>         0.0000
     35 C14       -13.9990   -6.3290   14.8320 C.3       1 <0>         0.0000
     36 C15       -16.2380   -6.3290   13.7000 C.3       1 <0>         0.0000
     37 C16       -22.0220   -3.7660   12.5590 C.3       1 <0>         0.0000
     38 C17       -16.0110   -9.3720   15.8780 C.3       1 <0>         0.0000
     39 N1        -19.9890   -4.4030   13.6200 N.2       1 <0>         0.0000
     40 N2        -20.7070   -4.3920   12.4600 N.am      1 <0>         0.0000
     41 N3        -17.0010   -6.0760   12.4740 N.pl3     1 <0>         0.0000
     42 N4        -15.7650   -8.0060   15.4130 N.4       1 <0>         0.0000
     43 O1        -21.0010   -4.8500   10.2580 O.2       1 <0>         0.0000
     44 H22       -18.5669   -5.9167   10.3864 H         1 <0>         0.0000
     45 H23       -16.1550   -7.3755   16.0841 H         1 <0>         0.0000
@<TRIPOS>BOND
     1    1   23 1
     2    2   24 1
     3    3   25 1
     4    4   26 1
     5    5   27 1
     6    6   28 1
     7    7   32 1
     8    8   32 1
     9    9   33 1
    10   10   33 1
    11   11   34 1
    12   12   34 1
    13   13   35 1
    14   14   36 1
    15   15   37 1
    16   16   37 1
    17   17   37 1
    18   18   38 1
    19   19   38 1
    20   20   38 1
    21   21   41 1
    22   22   29 2
    23   22   30 1
    24   23   24 ar
    25   23   25 ar
    26   24   26 ar
    27   25   27 ar
    28   26   31 ar
    29   27   31 ar
    30   28   29 1
    31   28   39 2
    32   29   41 1
    33   30   40 am
    34   30   43 2
    35   31   35 1
    36   32   35 1
    37   32   36 1
    38   33   35 1
    39   33   42 1
    40   34   36 1
    41   34   42 1
    42   36   41 1
    43   37   40 1
    44   38   42 1
    45   39   40 1
    46   22   44 1
    47   42   45 1
