@<TRIPOS>MOLECULE
****
   61    65     0     0     0
SMALL
NO_CHARGES

@<TRIPOS>ATOM
      1 H1         13.6600    4.8230   15.4180 H         1 <0>         0.0000
      2 H2         13.2010    2.4350   14.7210 H         1 <0>         0.0000
      3 H3         15.6260    5.0440   16.8010 H         1 <0>         0.0000
      4 H4         11.8060    1.1370   16.1850 H         1 <0>         0.0000
      5 H5         17.9510   10.1290    8.8730 H         1 <0>         0.0000
      6 H6         19.4960    8.3430    8.3150 H         1 <0>         0.0000
      7 H7         15.4460    7.3690   10.8260 H         1 <0>         0.0000
      8 H8         18.0270    5.1770   13.2830 H         1 <0>         0.0000
      9 H9          8.4060    3.2440   14.7830 H         1 <0>         0.0000
     10 H10        12.6900    4.5680   10.0640 H         1 <0>         0.0000
     11 H11        13.8730    5.4960    9.4280 H         1 <0>         0.0000
     12 H12        14.0400    3.8720    9.4650 H         1 <0>         0.0000
     13 H13        13.7670   12.5410    9.7040 H         1 <0>         0.0000
     14 H14        13.3740   11.2200   10.5800 H         1 <0>         0.0000
     15 H15        14.6070   12.1790   11.0570 H         1 <0>         0.0000
     16 H16         7.7930    1.4100   17.9450 H         1 <0>         0.0000
     17 H17         9.0060    2.4950   18.0840 H         1 <0>         0.0000
     18 H18         7.8010    2.7490   17.0110 H         1 <0>         0.0000
     19 H19        16.5580    4.4790    9.6560 H         1 <0>         0.0000
     20 H20        17.6730    4.5950   10.8430 H         1 <0>         0.0000
     21 H21        15.8680   11.5180    9.1190 H         1 <0>         0.0000
     22 C1         14.5690    4.8940   15.0080 C.ar      1 <0>         0.0000
     23 C2         12.2150    2.6010   14.7370 C.ar      1 <0>         0.0000
     24 C3         15.7060    5.0230   15.8040 C.ar      1 <0>         0.0000
     25 C4         11.3960    1.8370   15.6000 C.ar      1 <0>         0.0000
     26 C5         17.7510    9.1930    9.1630 C.ar      1 <0>         0.0000
     27 C6         18.6650    8.1390    8.8330 C.ar      1 <0>         0.0000
     28 C7         16.2810    7.5630   10.3110 C.ar      1 <0>         0.0000
     29 C8         17.1240    5.1010   13.7060 C.ar      1 <0>         0.0000
     30 C9          9.3930    3.0830   14.7690 C.ar      1 <0>         0.0000
     31 C10        14.7540    4.8640   13.4680 C.ar      1 <0>         0.0000
     32 C11        11.6320    3.6550   13.8470 C.ar      1 <0>         0.0000
     33 C12        13.6520    4.7270   12.5630 C.2       1 <0>         0.0000
     34 C13        17.1860    6.4530    9.9960 C.ar      1 <0>         0.0000
     35 C14        15.9600    4.9680   12.8790 C.ar      1 <0>         0.0000
     36 C15        10.2160    3.8320   13.9190 C.ar      1 <0>         0.0000
     37 C16        16.5450    8.9190    9.9100 C.ar      1 <0>         0.0000
     38 C17        17.0010    5.1260   15.1730 C.ar      1 <0>         0.0000
     39 C18         9.9840    2.0600   15.6400 C.ar      1 <0>         0.0000
     40 C19        18.3910    6.7900    9.2440 C.ar      1 <0>         0.0000
     41 C20        12.1760    4.5870   12.8970 C.2       1 <0>         0.0000
     42 C21        14.3400    4.7660   11.3250 C.2       1 <0>         0.0000
     43 C22        14.2750   10.4740    8.2450 C.2       1 <0>         0.0000
     44 C23        13.6790    4.6670    9.9520 C.3       1 <0>         0.0000
     45 C24        14.1280   11.7970   10.2660 C.3       1 <0>         0.0000
     46 C25         8.3730    2.0540   17.4470 C.3       1 <0>         0.0000
     47 C26        16.8450    5.0030   10.4580 C.3       1 <0>         0.0000
     48 C27        15.1050   10.9540    9.4340 C.3       1 <0>         0.0000
     49 C28        18.8370    4.1520   16.4650 C.3       1 <0>         0.0000
     50 N1         11.0630    5.2530   12.4460 N.2       1 <0>         0.0000
     51 N2         15.7630    4.9160   11.4830 N.pl3     1 <0>         0.0000
     52 O1         14.1880   11.0690    7.2330 O.co2     1 <0>         0.0000
     53 O2         13.6520    9.3050    8.4960 O.co2     1 <0>         0.0000
     54 O3          9.9160    4.8200   13.0360 O.3       1 <0>         0.0000
     55 O4          9.1060    1.3610   16.4600 O.3       1 <0>         0.0000
     56 O5         15.5840    9.9040   10.3050 O.3       1 <0>         0.0000
     57 O6         18.1770    5.2480   15.8840 O.3       1 <0>         0.0000
     58 F1         19.9500    4.6200   16.9880 F         1 <0>         0.0000
     59 F2         19.1280    3.2360   15.5240 F         1 <0>         0.0000
     60 F3         18.0820    3.6260   17.4220 F         1 <0>         0.0000
     61 Cl1        19.5630    5.6330    8.7920 Cl        1 <0>         0.0000
@<TRIPOS>BOND
     1    1   22 1
     2    2   23 1
     3    3   24 1
     4    4   25 1
     5    5   26 1
     6    6   27 1
     7    7   28 1
     8    8   29 1
     9    9   30 1
    10   10   44 1
    11   11   44 1
    12   12   44 1
    13   13   45 1
    14   14   45 1
    15   15   45 1
    16   16   46 1
    17   17   46 1
    18   18   46 1
    19   19   47 1
    20   20   47 1
    21   21   48 1
    22   22   24 ar
    23   22   31 ar
    24   23   25 ar
    25   23   32 ar
    26   24   38 ar
    27   25   39 ar
    28   26   27 ar
    29   26   37 ar
    30   27   40 ar
    31   28   34 ar
    32   28   37 ar
    33   29   35 ar
    34   29   38 ar
    35   30   36 ar
    36   30   39 ar
    37   31   33 1
    38   31   35 ar
    39   32   36 ar
    40   32   41 1
    41   33   41 1
    42   33   42 2
    43   34   40 ar
    44   34   47 1
    45   35   51 1
    46   36   54 1
    47   37   56 1
    48   38   57 1
    49   39   55 1
    50   40   61 1
    51   41   50 2
    52   42   44 1
    53   42   51 1
    54   43   48 1
    55   43   52 1
    56   43   53 2
    57   45   48 1
    58   46   55 1
    59   47   51 1
    60   48   56 1
    61   49   57 1
    62   49   58 1
    63   49   59 1
    64   49   60 1
    65   50   54 1
