@<TRIPOS>MOLECULE
****
   42    45     0     0     0
SMALL
NO_CHARGES

@<TRIPOS>ATOM
      1 H1         20.7860   23.5700    4.2720 H         1 <0>         0.0000
      2 H2         19.7330   21.4320    4.4900 H         1 <0>         0.0000
      3 H3         20.6120   25.1730    6.0460 H         1 <0>         0.0000
      4 H4         16.8520   18.5400   11.3510 H         1 <0>         0.0000
      5 H5         13.3430   16.6090   10.2810 H         1 <0>         0.0000
      6 H6         17.9790   16.3860    9.2850 H         1 <0>         0.0000
      7 H7         18.5020   20.8850    6.4750 H         1 <0>         0.0000
      8 H8         19.3830   24.6300    8.0280 H         1 <0>         0.0000
      9 H9         16.3590   18.1970   13.6720 H         1 <0>         0.0000
     10 H10        12.8320   16.2880   12.5950 H         1 <0>         0.0000
     11 H11        20.3760   16.3140    9.3920 H         1 <0>         0.0000
     12 H12        20.5240   20.4600    9.1270 H         1 <0>         0.0000
     13 H13        15.7500   16.9430    8.6840 H         1 <0>         0.0000
     14 H14        14.6650   18.1620    8.6200 H         1 <0>         0.0000
     15 C1         20.2750   23.3460    5.1020 C.ar      1 <0>         0.0000
     16 C2         19.6610   22.1000    5.2310 C.ar      1 <0>         0.0000
     17 C3         20.1740   24.2780    6.1340 C.ar      1 <0>         0.0000
     18 C4         16.0130   18.0620   11.6120 C.ar      1 <0>         0.0000
     19 C5         13.9730   16.9440   10.9820 C.ar      1 <0>         0.0000
     20 C6         18.5100   17.2330    9.2490 C.ar      1 <0>         0.0000
     21 C7         18.9450   21.7780    6.3890 C.ar      1 <0>         0.0000
     22 C8         19.4600   23.9590    7.2900 C.ar      1 <0>         0.0000
     23 C9         15.7300   17.8690   12.9670 C.ar      1 <0>         0.0000
     24 C10        13.6770   16.7540   12.3320 C.ar      1 <0>         0.0000
     25 C11        19.9020   17.1910    9.3140 C.ar      1 <0>         0.0000
     26 C12        19.9910   19.6140    9.1590 C.ar      1 <0>         0.0000
     27 C13        18.5990   19.6490    9.0940 C.ar      1 <0>         0.0000
     28 C14        15.1450   17.6000   10.6070 C.ar      1 <0>         0.0000
     29 C15        17.8620   18.4620    9.1340 C.ar      1 <0>         0.0000
     30 C16        18.8520   22.7090    7.4230 C.ar      1 <0>         0.0000
     31 C17        17.6660   20.6700    8.9670 C.2       1 <0>         0.0000
     32 C18        14.5520   17.2100   13.3150 C.ar      1 <0>         0.0000
     33 C19        20.6280   18.3770    9.2700 C.ar      1 <0>         0.0000
     34 C20        16.4070   20.1010    8.9660 C.2       1 <0>         0.0000
     35 C21        15.0650   20.8400    8.8420 C.2       1 <0>         0.0000
     36 C22        15.4670   17.8070    9.1000 C.3       1 <0>         0.0000
     37 N1         16.5670   18.7830    9.0460 N.pl3     1 <0>         0.0000
     38 O1         14.0920   20.1880    8.4210 O.co2     1 <0>         0.0000
     39 O2         14.9920   22.0500    9.1480 O.co2     1 <0>         0.0000
     40 S1         17.9700   22.3890    8.9000 S.3       1 <0>         0.0000
     41 Cl1        14.1500   16.9550   14.9740 Cl        1 <0>         0.0000
     42 Cl2        22.3440   18.2840    9.3630 Cl        1 <0>         0.0000
@<TRIPOS>BOND
     1    1   15 1
     2    2   16 1
     3    3   17 1
     4    4   18 1
     5    5   19 1
     6    6   20 1
     7    7   21 1
     8    8   22 1
     9    9   23 1
    10   10   24 1
    11   11   25 1
    12   12   26 1
    13   13   36 1
    14   14   36 1
    15   15   16 ar
    16   15   17 ar
    17   16   21 ar
    18   17   22 ar
    19   18   23 ar
    20   18   28 ar
    21   19   24 ar
    22   19   28 ar
    23   20   25 ar
    24   20   29 ar
    25   21   30 ar
    26   22   30 ar
    27   23   32 ar
    28   24   32 ar
    29   25   33 ar
    30   26   27 ar
    31   26   33 ar
    32   27   29 ar
    33   27   31 1
    34   28   36 1
    35   29   37 1
    36   30   40 1
    37   31   34 2
    38   31   40 1
    39   32   41 1
    40   33   42 1
    41   34   35 1
    42   34   37 1
    43   35   38 1
    44   35   39 2
    45   36   37 1
