@<TRIPOS>MOLECULE
****
   48    49     0     0     0
SMALL
NO_CHARGES

@<TRIPOS>ATOM
      1 H1         13.9400   28.6380   52.0630 H         1 <0>         0.0000
      2 H2         14.0490   28.1050   49.7310 H         1 <0>         0.0000
      3 H3         14.6180   27.0150   53.7020 H         1 <0>         0.0000
      4 H4         14.8520   25.9540   49.0350 H         1 <0>         0.0000
      5 H5         15.4160   24.8730   52.9940 H         1 <0>         0.0000
      6 H6         14.3710   21.7650   48.2520 H         1 <0>         0.0000
      7 H7         15.6710   18.2630   45.7940 H         1 <0>         0.0000
      8 H8         19.1840   17.5930   45.0980 H         1 <0>         0.0000
      9 H9         18.7560   16.5820   43.8890 H         1 <0>         0.0000
     10 H10        19.0160   18.1640   43.5770 H         1 <0>         0.0000
     11 H11        15.2800   17.9460   43.6290 H         1 <0>         0.0000
     12 H12        16.4880   18.3920   42.6240 H         1 <0>         0.0000
     13 H13        16.2280   16.8110   42.9360 H         1 <0>         0.0000
     14 H14        12.6540   19.0280   48.0270 H         1 <0>         0.0000
     15 H15        13.6700   19.4660   49.2290 H         1 <0>         0.0000
     16 H16        13.1320   20.5830   48.1660 H         1 <0>         0.0000
     17 H17        18.2180   18.1450   47.0220 H         1 <0>         0.0000
     18 H18        16.8420   17.5820   47.6980 H         1 <0>         0.0000
     19 H19        16.5890   23.6710   50.9910 H         1 <0>         0.0000
     20 H20        15.0490   23.1490   50.8360 H         1 <0>         0.0000
     21 H21        16.6030   24.3750   48.7590 H         1 <0>         0.0000
     22 H22        15.0380   23.9410   48.5930 H         1 <0>         0.0000
     23 H23        19.9570   20.7760   48.1550 H         1 <0>         0.0000
     24 C1         14.2700   27.7410   51.7710 C.ar      1 <0>         0.0000
     25 C2         14.3350   27.4320   50.4130 C.ar      1 <0>         0.0000
     26 C3         14.6670   26.7950   52.7280 C.ar      1 <0>         0.0000
     27 C4         14.8020   26.1750   50.0090 C.ar      1 <0>         0.0000
     28 C5         15.1300   25.5470   52.3130 C.ar      1 <0>         0.0000
     29 C6         15.3210   21.4570   48.1940 C.ar      1 <0>         0.0000
     30 C7         17.6630   21.8630   48.4410 C.ar      1 <0>         0.0000
     31 C8         15.1980   25.2300   50.9540 C.ar      1 <0>         0.0000
     32 C9         16.3410   22.3180   48.5690 C.ar      1 <0>         0.0000
     33 C10        16.9040   19.6930   47.6090 C.ar      1 <0>         0.0000
     34 C11        15.5970   20.1680   47.7370 C.ar      1 <0>         0.0000
     35 C12        17.9230   20.5690   47.9840 C.ar      1 <0>         0.0000
     36 C13        16.6600   18.1180   45.8000 C.2       1 <0>         0.0000
     37 C14        18.8620   22.7510   48.8280 C.2       1 <0>         0.0000
     38 C15        17.1790   17.8100   44.5240 C.2       1 <0>         0.0000
     39 C16        18.6640   17.5110   44.2480 C.3       1 <0>         0.0000
     40 C17        16.2080   17.7330   43.3220 C.3       1 <0>         0.0000
     41 C18        13.4130   19.6300   48.2760 C.3       1 <0>         0.0000
     42 C19        17.2270   18.2660   47.0780 C.3       1 <0>         0.0000
     43 C20        15.7120   23.8370   50.5400 C.3       1 <0>         0.0000
     44 C21        15.9040   23.7170   49.0390 C.3       1 <0>         0.0000
     45 O1         19.9900   22.2040   48.8470 O.co2     1 <0>         0.0000
     46 O2         18.6550   23.9480   49.1340 O.co2     1 <0>         0.0000
     47 O3         19.2160   20.1590   47.8900 O.3       1 <0>         0.0000
     48 O4         14.5520   19.3570   47.4130 O.3       1 <0>         0.0000
@<TRIPOS>BOND
     1    1   24 1
     2    2   25 1
     3    3   26 1
     4    4   27 1
     5    5   28 1
     6    6   29 1
     7    7   36 1
     8    8   39 1
     9    9   39 1
    10   10   39 1
    11   11   40 1
    12   12   40 1
    13   13   40 1
    14   14   41 1
    15   15   41 1
    16   16   41 1
    17   17   42 1
    18   18   42 1
    19   19   43 1
    20   20   43 1
    21   21   44 1
    22   22   44 1
    23   23   47 1
    24   24   25 ar
    25   24   26 ar
    26   25   27 ar
    27   26   28 ar
    28   27   31 ar
    29   28   31 ar
    30   29   32 ar
    31   29   34 ar
    32   30   32 ar
    33   30   35 ar
    34   30   37 1
    35   31   43 1
    36   32   44 1
    37   33   34 ar
    38   33   35 ar
    39   33   42 1
    40   34   48 1
    41   35   47 1
    42   36   38 2
    43   36   42 1
    44   37   45 1
    45   37   46 2
    46   38   39 1
    47   38   40 1
    48   41   48 1
    49   43   44 1
