@<TRIPOS>MOLECULE
****
   44    46     0     0     0
SMALL
NO_CHARGES

@<TRIPOS>ATOM
      1 H1         22.2970   72.5240   17.1090 H         1 <0>         0.0000
      2 H2         17.9910   60.7360   13.3160 H         1 <0>         0.0000
      3 H3         22.7850   70.9010   15.4250 H         1 <0>         0.0000
      4 H4         22.5050   71.9400   19.4200 H         1 <0>         0.0000
      5 H5         20.1380   60.6590   14.3590 H         1 <0>         0.0000
      6 H6         16.0620   61.3600   14.5830 H         1 <0>         0.0000
      7 H7         23.4890   68.7020   16.0360 H         1 <0>         0.0000
      8 H8         23.1940   69.7360   20.0280 H         1 <0>         0.0000
      9 H9         20.3660   61.2070   16.6740 H         1 <0>         0.0000
     10 H10        16.2910   61.9110   16.9020 H         1 <0>         0.0000
     11 H11        24.3310   65.2240   17.4790 H         1 <0>         0.0000
     12 H12        21.2600   67.5700   18.9600 H         1 <0>         0.0000
     13 H13        22.8210   63.3890   17.2880 H         1 <0>         0.0000
     14 H14        19.7490   65.7340   18.7650 H         1 <0>         0.0000
     15 H15        24.2010   67.6510   19.2970 H         1 <0>         0.0000
     16 H16        24.5970   67.4710   17.7230 H         1 <0>         0.0000
     17 H17        17.5540   61.9830   18.8610 H         1 <0>         0.0000
     18 H18        18.9960   61.2180   18.9110 H         1 <0>         0.0000
     19 H19        18.5590   64.0310   18.4490 H         1 <0>         0.0000
     20 C1         22.5880   71.6040   17.3700 C.ar      1 <0>         0.0000
     21 C2         18.0830   60.9660   14.2850 C.ar      1 <0>         0.0000
     22 C3         22.8740   70.6580   16.3910 C.ar      1 <0>         0.0000
     23 C4         22.7080   71.2650   18.7110 C.ar      1 <0>         0.0000
     24 C5         19.3340   60.9210   14.8920 C.ar      1 <0>         0.0000
     25 C6         16.9610   61.3290   15.0200 C.ar      1 <0>         0.0000
     26 C7         23.2830   69.3770   16.7450 C.ar      1 <0>         0.0000
     27 C8         23.1130   69.9810   19.0620 C.ar      1 <0>         0.0000
     28 C9         19.4670   61.2400   16.2370 C.ar      1 <0>         0.0000
     29 C10        17.0950   61.6490   16.3680 C.ar      1 <0>         0.0000
     30 C11        23.3760   65.3310   17.7550 C.ar      1 <0>         0.0000
     31 C12        21.5890   66.6910   18.6150 C.ar      1 <0>         0.0000
     32 C13        22.4940   64.2650   17.6430 C.ar      1 <0>         0.0000
     33 C14        20.7070   65.6230   18.5010 C.ar      1 <0>         0.0000
     34 C15        23.4050   69.0370   18.0900 C.ar      1 <0>         0.0000
     35 C16        22.9240   66.5490   18.2540 C.ar      1 <0>         0.0000
     36 C17        18.3450   61.6050   16.9730 C.ar      1 <0>         0.0000
     37 C18        21.1610   64.3990   18.0180 C.ar      1 <0>         0.0000
     38 C19        19.5030   63.3260   20.1800 C.2       1 <0>         0.0000
     39 C20        23.8500   67.6600   18.3600 C.3       1 <0>         0.0000
     40 C21        18.4700   61.9390   18.4610 C.3       1 <0>         0.0000
     41 C22        19.1730   63.2790   18.6870 C.3       1 <0>         0.0000
     42 O1         18.5410   63.4840   20.9660 O.co2     1 <0>         0.0000
     43 O2         20.6900   63.1950   20.5410 O.co2     1 <0>         0.0000
     44 O3         20.3460   63.3220   17.8570 O.3       1 <0>         0.0000
@<TRIPOS>BOND
     1    1   20 1
     2    2   21 1
     3    3   22 1
     4    4   23 1
     5    5   24 1
     6    6   25 1
     7    7   26 1
     8    8   27 1
     9    9   28 1
    10   10   29 1
    11   11   30 1
    12   12   31 1
    13   13   32 1
    14   14   33 1
    15   15   39 1
    16   16   39 1
    17   17   40 1
    18   18   40 1
    19   19   41 1
    20   20   22 ar
    21   20   23 ar
    22   21   24 ar
    23   21   25 ar
    24   22   26 ar
    25   23   27 ar
    26   24   28 ar
    27   25   29 ar
    28   26   34 ar
    29   27   34 ar
    30   28   36 ar
    31   29   36 ar
    32   30   32 ar
    33   30   35 ar
    34   31   33 ar
    35   31   35 ar
    36   32   37 ar
    37   33   37 ar
    38   34   39 1
    39   35   39 1
    40   36   40 1
    41   37   44 1
    42   38   41 1
    43   38   42 1
    44   38   43 2
    45   40   41 1
    46   41   44 1
