@<TRIPOS>MOLECULE
****
   47    50     0     0     0
SMALL
NO_CHARGES

@<TRIPOS>ATOM
      1 H1        -22.9814  -17.6601   11.7976 H         1 <0>         0.0000
      2 H2        -19.9090  -25.1090   12.2420 H         1 <0>         0.0000
      3 H3        -22.1430  -24.3050   11.9460 H         1 <0>         0.0000
      4 H4        -18.3200  -23.8140   13.5100 H         1 <0>         0.0000
      5 H5        -25.9630  -20.5560   12.6630 H         1 <0>         0.0000
      6 H6        -22.7920  -22.2120   12.8820 H         1 <0>         0.0000
      7 H7        -18.9700  -21.7320   14.4520 H         1 <0>         0.0000
      8 H8        -29.4290  -20.0170    8.2080 H         1 <0>         0.0000
      9 H9        -29.2540  -21.9210    6.7980 H         1 <0>         0.0000
     10 H10       -27.2840  -19.7800   10.8240 H         1 <0>         0.0000
     11 H11       -23.7660  -16.0080    9.4020 H         1 <0>         0.0000
     12 H12       -25.7450  -18.6140    6.8110 H         1 <0>         0.0000
     13 H13       -25.8720  -16.0850    7.9020 H         1 <0>         0.0000
     14 H14       -28.0340  -17.1800    7.9870 H         1 <0>         0.0000
     15 H15       -28.3800  -18.1530    9.2520 H         1 <0>         0.0000
     16 H16       -21.8330  -20.6310   15.2030 H         1 <0>         0.0000
     17 H17       -20.4780  -19.9550   14.5920 H         1 <0>         0.0000
     18 H18       -21.6600  -19.0230   12.8690 H         1 <0>         0.0000
     19 C1        -23.9300  -18.1260   11.5750 C.3       1 <0>         0.0000
     20 C2        -20.1820  -24.2340   12.6410 C.ar      1 <0>         0.0000
     21 C3        -21.4820  -23.7640   12.4660 C.ar      1 <0>         0.0000
     22 C4        -19.2520  -23.4760   13.3810 C.ar      1 <0>         0.0000
     23 C5        -25.6350  -19.8020   12.0940 C.2       1 <0>         0.0000
     24 C6        -21.8590  -22.5490   13.0110 C.ar      1 <0>         0.0000
     25 C7        -19.6310  -22.2670   13.9260 C.ar      1 <0>         0.0000
     26 C8        -28.6260  -20.1310    7.6230 C.ar      1 <0>         0.0000
     27 C9        -28.5280  -21.2330    6.8060 C.ar      1 <0>         0.0000
     28 C10       -26.4030  -19.3510   11.0250 C.2       1 <0>         0.0000
     29 C11       -24.5410  -16.6330    9.4930 C.2       1 <0>         0.0000
     30 C12       -26.4680  -19.3040    6.8100 C.ar      1 <0>         0.0000
     31 C13       -25.6870  -16.6820    8.6830 C.2       1 <0>         0.0000
     32 C14       -24.7110  -17.6720   10.4870 C.2       1 <0>         0.0000
     33 C15       -24.4060  -19.2010   12.3720 C.2       1 <0>         0.0000
     34 C16       -20.9290  -21.7840   13.7490 C.ar      1 <0>         0.0000
     35 C17       -27.5950  -19.1520    7.6430 C.ar      1 <0>         0.0000
     36 C18       -26.3690  -20.4120    5.9920 C.ar      1 <0>         0.0000
     37 C19       -27.3960  -21.3850    5.9810 C.ar      1 <0>         0.0000
     38 C20       -25.9240  -18.2620   10.2080 C.2       1 <0>         0.0000
     39 C21       -23.5350  -19.7070   13.5820 C.2       1 <0>         0.0000
     40 C22       -27.7170  -17.9580    8.5290 C.3       1 <0>         0.0000
     41 C23       -21.3150  -20.4530   14.3660 C.3       1 <0>         0.0000
     42 N1        -26.4760  -17.6370    9.1150 N.pl3     1 <0>         0.0000
     43 N2        -22.1020  -19.6430   13.5170 N.am      1 <0>         0.0000
     44 O1        -24.0970  -20.1580   14.5560 O.2       1 <0>         0.0000
     45 F1        -25.3320  -20.5760    5.2140 F         1 <0>         0.0000
     46 Cl1       -27.2230  -22.8040    4.8990 Cl        1 <0>         0.0000
     47 H19       -23.9300  -18.1260   11.5750 H         1 <0>         0.0000
@<TRIPOS>BOND
     1    1   19 1
     2    2   20 1
     3    3   21 1
     4    4   22 1
     5    5   23 1
     6    6   24 1
     7    7   25 1
     8    8   26 1
     9    9   27 1
    10   10   28 1
    11   11   29 1
    12   12   30 1
    13   13   31 1
    14   14   40 1
    15   15   40 1
    16   16   41 1
    17   17   41 1
    18   18   43 1
    19   19   32 1
    20   19   33 1
    21   20   21 ar
    22   20   22 ar
    23   21   24 ar
    24   22   25 ar
    25   23   28 1
    26   23   33 2
    27   24   34 ar
    28   25   34 ar
    29   26   27 ar
    30   26   35 ar
    31   27   37 ar
    32   28   38 2
    33   29   31 1
    34   29   32 2
    35   30   35 ar
    36   30   36 ar
    37   31   42 2
    38   32   38 1
    39   33   39 1
    40   34   41 1
    41   35   40 1
    42   36   37 ar
    43   36   45 1
    44   37   46 1
    45   38   42 1
    46   39   43 am
    47   39   44 2
    48   40   42 1
    49   41   43 1
    50   19   47 1
