@<TRIPOS>MOLECULE
****
   49    50     0     0     0
SMALL
NO_CHARGES

@<TRIPOS>ATOM
      1 H1         25.7216    1.7930   30.7513 H         1 <0>         0.0000
      2 H2         26.7750    3.3980   32.2330 H         1 <0>         0.0000
      3 H3         24.9990    2.5010   28.5610 H         1 <0>         0.0000
      4 H4         30.4380   -0.7010   24.0510 H         1 <0>         0.0000
      5 H5         33.9380    0.6240   26.0260 H         1 <0>         0.0000
      6 H6         29.4110    1.4590   24.4300 H         1 <0>         0.0000
      7 H7         32.9140    2.7640   26.4270 H         1 <0>         0.0000
      8 H8         28.5230    4.5970   31.0750 H         1 <0>         0.0000
      9 H9         31.3750   -2.6680   26.1732 H         1 <0>         0.0000
     10 H10        29.8910    5.5880   30.0290 H         1 <0>         0.0000
     11 H11        30.8890    5.3540   28.7580 H         1 <0>         0.0000
     12 H12        29.9850    6.7110   28.8460 H         1 <0>         0.0000
     13 H13        32.5960   -2.0850   23.9920 H         1 <0>         0.0000
     14 H14        33.9100   -1.6010   24.8320 H         1 <0>         0.0000
     15 H15        29.6090    5.7600   26.4940 H         1 <0>         0.0000
     16 H16        27.9980    5.4910   26.4860 H         1 <0>         0.0000
     17 H17        28.7440    3.0270   26.6220 H         1 <0>         0.0000
     18 H18        28.6680    3.7710   25.1710 H         1 <0>         0.0000
     19 C1         25.7180    2.8630   30.4960 C.3       1 <0>         0.0000
     20 C2         32.2820   -0.2640   25.0220 C.3       1 <0>         0.0000
     21 C3         31.0630    2.3130   25.5140 C.3       1 <0>         0.0000
     22 C4         27.7710    4.2640   29.0830 C.3       1 <0>         0.0000
     23 C5         26.7610    3.4660   31.2350 C.2       1 <0>         0.0000
     24 C6         25.7270    2.9500   29.0790 C.2       1 <0>         0.0000
     25 C7         30.9410    0.0080   24.5450 C.2       1 <0>         0.0000
     26 C8         33.0030    0.7900   25.7130 C.2       1 <0>         0.0000
     27 C9         30.3320    1.2760   24.7730 C.2       1 <0>         0.0000
     28 C10        32.4000    2.0510   25.9500 C.2       1 <0>         0.0000
     29 C11        27.7850    4.1660   30.5550 C.2       1 <0>         0.0000
     30 C12        32.4730   -2.6660   26.1070 C.3       1 <0>         0.0000
     31 C13        32.9600   -4.1540   25.9690 C.2       1 <0>         0.0000
     32 C14        34.0440   -3.7150   27.8970 C.2       1 <0>         0.0000
     33 C15        30.0090    5.7310   29.0460 C.3       1 <0>         0.0000
     34 C16        32.9140   -1.6840   24.8510 C.3       1 <0>         0.0000
     35 C17        28.8850    5.1300   26.7750 C.3       1 <0>         0.0000
     36 C18        29.1160    3.7690   26.0650 C.3       1 <0>         0.0000
     37 N1         26.7060    3.6320   28.3980 N.2       1 <0>         0.0000
     38 N2         33.7730   -4.6340   26.9640 N.2       1 <0>         0.0000
     39 N3         28.8930    5.0360   28.2980 N.4       1 <0>         0.0000
     40 O1         32.6000   -4.8780   25.0490 O.2       1 <0>         0.0000
     41 O2         34.7450   -3.9680   28.8790 O.2       1 <0>         0.0000
     42 O3         30.5660    3.5910   25.8980 O.3       1 <0>         0.0000
     43 S1         33.2740   -2.1370   27.6560 S.3       1 <0>         0.0000
     44 H19        24.7774    3.3187   30.8390 H         1 <0>         0.0000
     45 H20        32.7061    0.0563   24.0589 H         1 <0>         0.0000
     46 H21        31.4424    2.7330   24.5708 H         1 <0>         0.0000
     47 H22        27.1800    5.1894   29.1496 H         1 <0>         0.0000
     48 H23        32.8954   -2.2502   27.0336 H         1 <0>         0.0000
     49 H24        29.4400    4.2003   28.2484 H         1 <0>         0.0000
@<TRIPOS>BOND
     1    1   19 1
     2    2   23 1
     3    3   24 1
     4    4   25 1
     5    5   26 1
     6    6   27 1
     7    7   28 1
     8    8   29 1
     9    9   30 1
    10   10   33 1
    11   11   33 1
    12   12   33 1
    13   13   34 1
    14   14   34 1
    15   15   35 1
    16   16   35 1
    17   17   36 1
    18   18   36 1
    19   19   23 1
    20   19   24 1
    21   20   25 1
    22   20   26 1
    23   20   34 1
    24   21   27 1
    25   21   28 1
    26   21   42 1
    27   22   29 1
    28   22   37 1
    29   22   39 1
    30   23   29 2
    31   24   37 2
    32   25   27 2
    33   26   28 2
    34   30   31 1
    35   30   34 1
    36   31   38 1
    37   31   40 2
    38   32   38 1
    39   32   41 2
    40   32   43 1
    41   33   39 1
    42   35   36 1
    43   35   39 1
    44   36   42 1
    45   19   44 1
    46   20   45 1
    47   21   46 1
    48   22   47 1
    49   30   48 1
    50   39   49 1
