@<TRIPOS>MOLECULE
****
   68    70     0     0     0
SMALL
NO_CHARGES

@<TRIPOS>ATOM
      1 H1         18.2600   17.4030    6.9870 H         1 <0>         0.0000
      2 H2         20.0070   18.0960    8.4600 H         1 <0>         0.0000
      3 H3         16.6030   15.7930   17.3220 H         1 <0>         0.0000
      4 H4         19.3020   16.4310   14.2420 H         1 <0>         0.0000
      5 H5         16.1740   16.6300    7.8740 H         1 <0>         0.0000
      6 H6         19.6630   18.0170   10.8350 H         1 <0>         0.0000
      7 H7         18.1130   16.8290   18.8550 H         1 <0>         0.0000
      8 H8         20.8130   17.4650   15.7820 H         1 <0>         0.0000
      9 H9          8.3290   12.5350   18.1480 H         1 <0>         0.0000
     10 H10         7.8700   13.2030   16.7310 H         1 <0>         0.0000
     11 H11         8.5810   11.7330   16.7480 H         1 <0>         0.0000
     12 H12        21.6790   20.6080   21.6100 H         1 <0>         0.0000
     13 H13        20.2070   20.9160   20.9750 H         1 <0>         0.0000
     14 H14        20.4240   19.6170   21.9410 H         1 <0>         0.0000
     15 H15        18.6560   20.2650   19.6370 H         1 <0>         0.0000
     16 H16        19.4400   20.3080   18.2050 H         1 <0>         0.0000
     17 H17        18.2120   19.2560   18.4320 H         1 <0>         0.0000
     18 H18        17.2900   15.2100   13.8150 H         1 <0>         0.0000
     19 H19        16.3090   14.7480   15.0360 H         1 <0>         0.0000
     20 H20        10.6160   12.7270   17.5020 H         1 <0>         0.0000
     21 H21         9.9040   14.1970   17.4840 H         1 <0>         0.0000
     22 H22        21.8410   18.6340   20.2990 H         1 <0>         0.0000
     23 H23        21.6240   19.9320   19.3340 H         1 <0>         0.0000
     24 H24         9.7840   14.2100   15.1720 H         1 <0>         0.0000
     25 H25        10.1430   12.6190   15.0810 H         1 <0>         0.0000
     26 H26        12.3490   12.9890   15.6660 H         1 <0>         0.0000
     27 H27        12.0320   14.5160   16.1510 H         1 <0>         0.0000
     28 H28        12.1790   13.5720   13.4300 H         1 <0>         0.0000
     29 H29        11.5090   15.0160   13.7930 H         1 <0>         0.0000
     30 H30        13.6130   15.6030   14.8910 H         1 <0>         0.0000
     31 H31        14.2510   14.2440   14.2480 H         1 <0>         0.0000
     32 H32        15.0980   16.6720   14.9510 H         1 <0>         0.0000
     33 H33        16.3100   17.5060   14.2430 H         1 <0>         0.0000
     34 H34        13.9090   15.1010   12.0640 H         1 <0>         0.0000
     35 H35        13.2280   16.4470   12.6890 H         1 <0>         0.0000
     36 C1         18.1210   17.3710    7.9770 C.ar      1 <0>         0.0000
     37 C2         19.1360   17.7740    8.8310 C.ar      1 <0>         0.0000
     38 C3         17.4790   16.1500   16.9980 C.ar      1 <0>         0.0000
     39 C4         19.0500   16.5210   15.2060 C.ar      1 <0>         0.0000
     40 C5         16.9030   16.9200    8.4950 C.ar      1 <0>         0.0000
     41 C6         18.9350   17.7280   10.2130 C.ar      1 <0>         0.0000
     42 C7         18.3590   16.7520   17.8890 C.ar      1 <0>         0.0000
     43 C8         19.9300   17.1230   16.1030 C.ar      1 <0>         0.0000
     44 C9         17.8220   16.0450   15.6510 C.ar      1 <0>         0.0000
     45 C10        16.7020   16.8730    9.8640 C.ar      1 <0>         0.0000
     46 C11        17.7260   17.2810   10.7210 C.ar      1 <0>         0.0000
     47 C12        19.5840   17.2500   17.4440 C.ar      1 <0>         0.0000
     48 C13        15.9860   16.6510   11.8880 C.2       1 <0>         0.0000
     49 C14        19.3140   17.7690   20.4310 C.2       1 <0>         0.0000
     50 C15         8.5590   12.6350   17.1800 C.3       1 <0>         0.0000
     51 C16        20.8460   20.1950   21.2420 C.3       1 <0>         0.0000
     52 C17        18.9850   19.7150   18.8690 C.3       1 <0>         0.0000
     53 C18        16.8100   15.5160   14.6370 C.3       1 <0>         0.0000
     54 C19         9.9320   13.2980   17.0470 C.3       1 <0>         0.0000
     55 C20        21.1950   19.3430   20.0180 C.3       1 <0>         0.0000
     56 C21        10.3230   13.4700   15.5750 C.3       1 <0>         0.0000
     57 C22        11.8140   13.8120   15.4750 C.3       1 <0>         0.0000
     58 C23        12.1800   14.3320   14.0800 C.3       1 <0>         0.0000
     59 C24        13.5730   14.9680   14.1190 C.3       1 <0>         0.0000
     60 C25        15.8270   16.6310   14.2680 C.3       1 <0>         0.0000
     61 C26        13.9130   15.7340   12.8380 C.3       1 <0>         0.0000
     62 C27        19.9780   18.6660   19.3810 C.3       1 <0>         0.0000
     63 N1         15.6620   16.4970   10.6100 N.2       1 <0>         0.0000
     64 N2         15.2460   16.3560   12.9500 N.pl3     1 <0>         0.0000
     65 O1         20.0500   16.9290   20.9940 O.co2     1 <0>         0.0000
     66 O2         18.0950   17.9350   20.6490 O.co2     1 <0>         0.0000
     67 O3         17.2570   17.1370   11.9940 O.3       1 <0>         0.0000
     68 O4         20.4570   17.8710   18.2870 O.3       1 <0>         0.0000
@<TRIPOS>BOND
     1    1   36 1
     2    2   37 1
     3    3   38 1
     4    4   39 1
     5    5   40 1
     6    6   41 1
     7    7   42 1
     8    8   43 1
     9    9   50 1
    10   10   50 1
    11   11   50 1
    12   12   51 1
    13   13   51 1
    14   14   51 1
    15   15   52 1
    16   16   52 1
    17   17   52 1
    18   18   53 1
    19   19   53 1
    20   20   54 1
    21   21   54 1
    22   22   55 1
    23   23   55 1
    24   24   56 1
    25   25   56 1
    26   26   57 1
    27   27   57 1
    28   28   58 1
    29   29   58 1
    30   30   59 1
    31   31   59 1
    32   32   60 1
    33   33   60 1
    34   34   61 1
    35   35   61 1
    36   36   37 ar
    37   36   40 ar
    38   37   41 ar
    39   38   42 ar
    40   38   44 ar
    41   39   43 ar
    42   39   44 ar
    43   40   45 ar
    44   41   46 ar
    45   42   47 ar
    46   43   47 ar
    47   44   53 1
    48   45   46 ar
    49   45   63 1
    50   46   67 1
    51   47   68 1
    52   48   63 2
    53   48   64 1
    54   48   67 1
    55   49   62 1
    56   49   65 1
    57   49   66 2
    58   50   54 1
    59   51   55 1
    60   52   62 1
    61   53   60 1
    62   54   56 1
    63   55   62 1
    64   56   57 1
    65   57   58 1
    66   58   59 1
    67   59   61 1
    68   60   64 1
    69   61   64 1
    70   62   68 1
