@<TRIPOS>MOLECULE
****
   64    68     0     0     0
SMALL
NO_CHARGES

@<TRIPOS>ATOM
      1 H1          5.2990   45.0410   58.2910 H         1 <0>         0.0000
      2 H2          7.5860   44.3730   58.5760 H         1 <0>         0.0000
      3 H3          4.7790   47.3150   57.7180 H         1 <0>         0.0000
      4 H4          9.3500   45.9770   58.2870 H         1 <0>         0.0000
      5 H5          5.4750   49.5220   57.2250 H         1 <0>         0.0000
      6 H6          7.2190   51.1410   56.9330 H         1 <0>         0.0000
      7 H7         11.0160   46.1280   63.7940 H         1 <0>         0.0000
      8 H8         16.4600   50.9510   61.3690 H         1 <0>         0.0000
      9 H9         18.2620   51.1740   65.3800 H         1 <0>         0.0000
     10 H10        17.9810   52.4680   66.3360 H         1 <0>         0.0000
     11 H11        17.9910   50.9660   66.9770 H         1 <0>         0.0000
     12 H12        16.2020   47.1330   62.7970 H         1 <0>         0.0000
     13 H13        16.9930   48.2550   63.6830 H         1 <0>         0.0000
     14 H14        15.9890   47.1960   64.4150 H         1 <0>         0.0000
     15 H15        11.1180   51.5470   55.6260 H         1 <0>         0.0000
     16 H16        10.7710   49.9580   55.4870 H         1 <0>         0.0000
     17 H17         9.6500   51.0770   55.0870 H         1 <0>         0.0000
     18 H18         8.5610   45.4030   61.1860 H         1 <0>         0.0000
     19 H19         9.4450   44.9720   62.4900 H         1 <0>         0.0000
     20 H20         8.7230   46.4360   62.4400 H         1 <0>         0.0000
     21 H21         9.5100   51.7520   57.3690 H         1 <0>         0.0000
     22 H22        10.6300   50.6330   57.7690 H         1 <0>         0.0000
     23 H23        10.7170   47.2280   57.3760 H         1 <0>         0.0000
     24 H24        11.1550   48.7980   57.4790 H         1 <0>         0.0000
     25 H25        10.0850   47.9070   59.9310 H         1 <0>         0.0000
     26 H26        13.7810   47.4330   65.6580 H         1 <0>         0.0000
     27 C1          6.0340   45.7080   58.1710 C.ar      1 <0>         0.0000
     28 C2          7.3670   45.3190   58.3370 C.ar      1 <0>         0.0000
     29 C3          5.7310   47.0340   57.8370 C.ar      1 <0>         0.0000
     30 C4          8.3970   46.2550   58.1690 C.ar      1 <0>         0.0000
     31 C5          6.4310   49.2540   57.3420 C.ar      1 <0>         0.0000
     32 C6          7.4490   50.1980   57.1720 C.ar      1 <0>         0.0000
     33 C7         11.6630   46.6650   63.2530 C.ar      1 <0>         0.0000
     34 C8          6.7490   47.9530   57.6720 C.ar      1 <0>         0.0000
     35 C9          8.0920   47.5690   57.8380 C.ar      1 <0>         0.0000
     36 C10        12.3410   47.5920   61.1330 C.ar      1 <0>         0.0000
     37 C11        13.6810   47.9700   63.1160 C.ar      1 <0>         0.0000
     38 C12         8.7890   49.8260   57.3350 C.ar      1 <0>         0.0000
     39 C13         9.1190   48.5030   57.6710 C.ar      1 <0>         0.0000
     40 C14        13.4550   48.1580   61.7360 C.ar      1 <0>         0.0000
     41 C15        11.4420   46.8460   61.8930 C.ar      1 <0>         0.0000
     42 C16        12.7740   47.2230   63.8640 C.ar      1 <0>         0.0000
     43 C17        15.9890   50.6360   62.1930 C.2       1 <0>         0.0000
     44 C18        15.7740   50.8300   64.6170 C.2       1 <0>         0.0000
     45 C19        16.1630   51.3720   63.4670 C.2       1 <0>         0.0000
     46 C20        15.2070   49.5540   62.1390 C.2       1 <0>         0.0000
     47 C21        14.8810   49.6450   64.6160 C.2       1 <0>         0.0000
     48 C22        12.1040   47.7790   59.6940 C.2       1 <0>         0.0000
     49 C23        16.2490   51.3830   65.9010 C.2       1 <0>         0.0000
     50 C24        14.9780   48.7110   63.3990 C.3       1 <0>         0.0000
     51 C25        17.7510   51.5090   66.1720 C.3       1 <0>         0.0000
     52 C26        16.1410   47.7400   63.5900 C.3       1 <0>         0.0000
     53 C27        10.3990   50.8580   55.7130 C.3       1 <0>         0.0000
     54 C28         9.1820   45.7330   61.8970 C.3       1 <0>         0.0000
     55 C29         9.8750   50.8470   57.1500 C.3       1 <0>         0.0000
     56 C30        10.5550   48.0910   57.8540 C.3       1 <0>         0.0000
     57 N1         10.8360   47.9200   59.2710 N.am      1 <0>         0.0000
     58 O1         14.1550   49.4080   65.5780 O.2       1 <0>         0.0000
     59 O2         13.0450   47.7900   58.9090 O.2       1 <0>         0.0000
     60 O3         15.4430   51.7390   66.7480 O.2       1 <0>         0.0000
     61 O4         14.4690   48.9240   61.2220 O.3       1 <0>         0.0000
     62 O5         12.9800   47.0320   65.2130 O.3       1 <0>         0.0000
     63 O6         16.7400   52.5980   63.4560 O.3       1 <0>         0.0000
     64 O7         10.3340   46.2800   61.2970 O.3       1 <0>         0.0000
@<TRIPOS>BOND
     1    1   27 1
     2    2   28 1
     3    3   29 1
     4    4   30 1
     5    5   31 1
     6    6   32 1
     7    7   33 1
     8    8   43 1
     9    9   51 1
    10   10   51 1
    11   11   51 1
    12   12   52 1
    13   13   52 1
    14   14   52 1
    15   15   53 1
    16   16   53 1
    17   17   53 1
    18   18   54 1
    19   19   54 1
    20   20   54 1
    21   21   55 1
    22   22   55 1
    23   23   56 1
    24   24   56 1
    25   25   57 1
    26   26   62 1
    27   27   28 ar
    28   27   29 ar
    29   28   30 ar
    30   29   34 ar
    31   30   35 ar
    32   31   32 ar
    33   31   34 ar
    34   32   38 ar
    35   33   41 ar
    36   33   42 ar
    37   34   35 ar
    38   35   39 ar
    39   36   40 ar
    40   36   41 ar
    41   36   48 1
    42   37   40 ar
    43   37   42 ar
    44   37   50 1
    45   38   39 ar
    46   38   55 1
    47   39   56 1
    48   40   61 1
    49   41   64 1
    50   42   62 1
    51   43   45 1
    52   43   46 2
    53   44   45 2
    54   44   47 1
    55   44   49 1
    56   45   63 1
    57   46   50 1
    58   46   61 1
    59   47   50 1
    60   47   58 2
    61   48   57 am
    62   48   59 2
    63   49   51 1
    64   49   60 2
    65   50   52 1
    66   53   55 1
    67   54   64 1
    68   56   57 1
