@<TRIPOS>MOLECULE
****
   60    65     0     0     0
SMALL
NO_CHARGES

@<TRIPOS>ATOM
      1 H1         20.0070   23.6070    5.2140 H         1 <0>         0.0000
      2 H2         18.0050   24.8740    4.7470 H         1 <0>         0.0000
      3 H3         19.9350   21.7650    6.7620 H         1 <0>         0.0000
      4 H4         15.9400   24.2710    5.8140 H         1 <0>         0.0000
      5 H5         16.8970   21.5600    9.7930 H         1 <0>         0.0000
      6 H6         16.9780   19.5970   11.2130 H         1 <0>         0.0000
      7 H7         18.9930   19.5010    6.8390 H         1 <0>         0.0000
      8 H8         16.9971   16.9338   16.1270 H         1 <0>         0.0000
      9 H9         19.0200   16.6900    7.3700 H         1 <0>         0.0000
     10 H10        20.2180   17.0140    8.4310 H         1 <0>         0.0000
     11 H11        19.1540   15.3870    9.6540 H         1 <0>         0.0000
     12 H12        17.7040   15.7080    8.9750 H         1 <0>         0.0000
     13 H13        19.0160   17.1430   11.0920 H         1 <0>         0.0000
     14 H14        13.7490   16.1020   14.7370 H         1 <0>         0.0000
     15 H15        14.5120   15.1300   15.8050 H         1 <0>         0.0000
     16 H16        14.4350   16.7390   16.0750 H         1 <0>         0.0000
     17 H17        19.4480   16.1090   16.3700 H         1 <0>         0.0000
     18 H18        20.1740   15.5470   15.0200 H         1 <0>         0.0000
     19 H19        20.0880   17.1550   15.2920 H         1 <0>         0.0000
     20 H20        13.3820   16.7300    8.5060 H         1 <0>         0.0000
     21 H21        13.6870   15.5620    9.6060 H         1 <0>         0.0000
     22 H22        13.0840   17.0010   10.0880 H         1 <0>         0.0000
     23 H23        15.0690   18.0550    9.4270 H         1 <0>         0.0000
     24 H24        15.6720   16.6160    8.9440 H         1 <0>         0.0000
     25 C1         19.1450   23.3650    5.6600 C.ar      1 <0>         0.0000
     26 C2         17.9750   24.1040    5.3840 C.ar      1 <0>         0.0000
     27 C3         19.0980   22.2780    6.5720 C.ar      1 <0>         0.0000
     28 C4         16.7720   23.7520    6.0080 C.ar      1 <0>         0.0000
     29 C5         17.3460   20.7290    9.4640 C.ar      1 <0>         0.0000
     30 C6         17.3940   19.5830   10.3040 C.ar      1 <0>         0.0000
     31 C7         18.5650   19.5290    7.7420 C.ar      1 <0>         0.0000
     32 C8         17.9210   20.7150    8.1730 C.ar      1 <0>         0.0000
     33 C9         17.8910   21.9010    7.2220 C.ar      1 <0>         0.0000
     34 C10        16.7300   22.6690    6.9080 C.ar      1 <0>         0.0000
     35 C11        18.0460   18.4200    9.8200 C.ar      1 <0>         0.0000
     36 C12        18.6110   18.3820    8.5720 C.ar      1 <0>         0.0000
     37 C13        15.4150   22.4040    7.5050 C.2       1 <0>         0.0000
     38 C14        17.0510   16.1570   15.3500 C.3       1 <0>         0.0000
     39 C15        15.8240   16.2220   14.6130 C.3       1 <0>         0.0000
     40 C16        18.3000   16.3350   14.6720 C.3       1 <0>         0.0000
     41 C17        15.8870   16.4720   13.1870 C.2       1 <0>         0.0000
     42 C18        15.6680   16.8480   11.0130 C.cat     1 <0>         0.0000
     43 C19        17.1530   16.6360   12.5950 C.cat     1 <0>         0.0000
     44 C20        19.2270   17.0000    8.2980 C.3       1 <0>         0.0000
     45 C21        18.5410   16.1130    9.3430 C.3       1 <0>         0.0000
     46 C22        18.2240   17.0930   10.4840 C.3       1 <0>         0.0000
     47 C23        14.5180   16.0320   15.3730 C.3       1 <0>         0.0000
     48 C24        19.6120   16.2820   15.3990 C.3       1 <0>         0.0000
     49 C25        13.6940   16.5480    9.4380 C.3       1 <0>         0.0000
     50 C26        15.0800   17.0720    9.6090 C.3       1 <0>         0.0000
     51 N1         14.7790   21.1970    7.5370 N.2       1 <0>         0.0000
     52 N2         14.6700   23.3540    8.1280 N.2       1 <0>         0.0000
     53 N3         13.5860   21.4250    8.2100 N.2       1 <0>         0.0000
     54 N4         13.5140   22.6940    8.5570 N.2       1 <0>         0.0000
     55 N5         18.3280   16.5670   13.3090 N.2       1 <0>         0.0000
     56 N6         14.9930   16.6040   12.1700 N.2       1 <0>         0.0000
     57 N7         16.9910   16.8560   11.3160 N.pl3     1 <0>         0.0000
     58 H25        17.0850   15.1653   15.8247 H         1 <0>         0.0000
     59 H26        15.8758   15.1390   14.4274 H         1 <0>         0.0000
     60 H27        18.3564   15.2517   14.4896 H         1 <0>         0.0000
@<TRIPOS>BOND
     1    1   25 1
     2    2   26 1
     3    3   27 1
     4    4   28 1
     5    5   29 1
     6    6   30 1
     7    7   31 1
     8    8   38 1
     9    9   44 1
    10   10   44 1
    11   11   45 1
    12   12   45 1
    13   13   46 1
    14   14   47 1
    15   15   47 1
    16   16   47 1
    17   17   48 1
    18   18   48 1
    19   19   48 1
    20   20   49 1
    21   21   49 1
    22   22   49 1
    23   23   50 1
    24   24   50 1
    25   25   26 ar
    26   25   27 ar
    27   26   28 ar
    28   27   33 ar
    29   28   34 ar
    30   29   30 ar
    31   29   32 ar
    32   30   35 ar
    33   31   32 ar
    34   31   36 ar
    35   32   33 1
    36   33   34 ar
    37   34   37 1
    38   35   36 ar
    39   35   46 1
    40   36   44 1
    41   37   51 1
    42   37   52 2
    43   38   39 1
    44   38   40 1
    45   39   41 1
    46   39   47 1
    47   40   48 1
    48   40   55 1
    49   41   43 1
    50   41   56 2
    51   42   50 1
    52   42   56 1
    53   42   57 2
    54   43   55 1
    55   43   57 1
    56   44   45 1
    57   45   46 1
    58   46   57 1
    59   49   50 1
    60   51   53 1
    61   52   54 1
    62   53   54 2
    63   38   58 1
    64   39   59 1
    65   40   60 1
