@<TRIPOS>MOLECULE
****
   53    55     0     0     0
SMALL
NO_CHARGES

@<TRIPOS>ATOM
      1 H1          7.9680    0.5140   16.9640 H         1 <0>         0.0000
      2 H2          7.2110    2.6530   16.2200 H         1 <0>         0.0000
      3 H3         10.1230   -0.2810   16.3270 H         1 <0>         0.0000
      4 H4         17.7040    4.0890   16.5850 H         1 <0>         0.0000
      5 H5         20.9720    5.4570   14.4230 H         1 <0>         0.0000
      6 H6          8.6090    3.9840   14.8110 H         1 <0>         0.0000
      7 H7         11.5240    1.0450   14.9180 H         1 <0>         0.0000
      8 H8         14.2650    2.1830   12.6910 H         1 <0>         0.0000
      9 H9         12.7970    5.4850   14.6850 H         1 <0>         0.0000
     10 H10        18.2490    5.6200   18.3340 H         1 <0>         0.0000
     11 H11        21.4910    7.0230   16.1630 H         1 <0>         0.0000
     12 H12        16.4470    3.0880   12.7510 H         1 <0>         0.0000
     13 H13        15.0170    6.4170   14.7380 H         1 <0>         0.0000
     14 H14        17.6280    9.1530   19.0780 H         1 <0>         0.0000
     15 H15        18.6550    9.3650   17.8260 H         1 <0>         0.0000
     16 H16        17.7400    8.0150   17.9120 H         1 <0>         0.0000
     17 H17        19.4530    9.5740   20.5440 H         1 <0>         0.0000
     18 H18        20.8100    8.6690   20.4840 H         1 <0>         0.0000
     19 H19        20.4740    9.7170   19.2780 H         1 <0>         0.0000
     20 H20        19.8340    3.3760   13.8710 H         1 <0>         0.0000
     21 H21        18.4590    2.9450   14.6400 H         1 <0>         0.0000
     22 H22        18.8020    4.9170   12.6370 H         1 <0>         0.0000
     23 H23        17.7230    3.6920   12.6700 H         1 <0>         0.0000
     24 C1          8.5540    1.0760   16.3800 C.ar      1 <0>         0.0000
     25 C2          8.1120    2.3170   15.9460 C.ar      1 <0>         0.0000
     26 C3          9.8070    0.6120   16.0070 C.ar      1 <0>         0.0000
     27 C4         18.4970    4.6930   16.5040 C.ar      1 <0>         0.0000
     28 C5         20.4040    5.5010   15.2450 C.ar      1 <0>         0.0000
     29 C6          8.9250    3.0910   15.1310 C.ar      1 <0>         0.0000
     30 C7         10.6230    1.3820   15.1920 C.ar      1 <0>         0.0000
     31 C8         14.4190    3.0720   13.1220 C.ar      1 <0>         0.0000
     32 C9         13.5630    4.9880   14.2780 C.ar      1 <0>         0.0000
     33 C10        18.8110    5.5880   17.5070 C.ar      1 <0>         0.0000
     34 C11        20.7070    6.4090   16.2520 C.ar      1 <0>         0.0000
     35 C12        15.6870    3.5960   13.1560 C.ar      1 <0>         0.0000
     36 C13        14.8540    5.5270   14.3110 C.ar      1 <0>         0.0000
     37 C14        19.3080    4.6520   15.3820 C.ar      1 <0>         0.0000
     38 C15        10.1790    2.6230   14.7600 C.ar      1 <0>         0.0000
     39 C16        13.3580    3.7510   13.6720 C.ar      1 <0>         0.0000
     40 C17        15.9140    4.8160   13.7450 C.ar      1 <0>         0.0000
     41 C18        19.9050    6.4510   17.3820 C.ar      1 <0>         0.0000
     42 C19        18.7470    7.0610   20.2120 C.2       1 <0>         0.0000
     43 C20        18.2490    8.6920   18.4440 C.3       1 <0>         0.0000
     44 C21        20.0790    9.0810   19.9400 C.3       1 <0>         0.0000
     45 C22        18.9830    3.7140   14.2740 C.3       1 <0>         0.0000
     46 C23        18.1800    4.3930   13.2180 C.3       1 <0>         0.0000
     47 C24        19.3310    8.0080   19.2150 C.3       1 <0>         0.0000
     48 N1         11.0120    3.4480   13.9430 N.2       1 <0>         0.0000
     49 N2         12.1060    3.0600   13.5660 N.2       1 <0>         0.0000
     50 O1         19.4760    6.1710   20.7340 O.co2     1 <0>         0.0000
     51 O2         17.5280    7.1470   20.5130 O.co2     1 <0>         0.0000
     52 O3         17.2180    5.2540   13.7160 O.3       1 <0>         0.0000
     53 O4         20.2300    7.3460   18.3890 O.3       1 <0>         0.0000
@<TRIPOS>BOND
     1    1   24 1
     2    2   25 1
     3    3   26 1
     4    4   27 1
     5    5   28 1
     6    6   29 1
     7    7   30 1
     8    8   31 1
     9    9   32 1
    10   10   33 1
    11   11   34 1
    12   12   35 1
    13   13   36 1
    14   14   43 1
    15   15   43 1
    16   16   43 1
    17   17   44 1
    18   18   44 1
    19   19   44 1
    20   20   45 1
    21   21   45 1
    22   22   46 1
    23   23   46 1
    24   24   25 ar
    25   24   26 ar
    26   25   29 ar
    27   26   30 ar
    28   27   33 ar
    29   27   37 ar
    30   28   34 ar
    31   28   37 ar
    32   29   38 ar
    33   30   38 ar
    34   31   35 ar
    35   31   39 ar
    36   32   36 ar
    37   32   39 ar
    38   33   41 ar
    39   34   41 ar
    40   35   40 ar
    41   36   40 ar
    42   37   45 1
    43   38   48 1
    44   39   49 1
    45   40   52 1
    46   41   53 1
    47   42   47 1
    48   42   50 1
    49   42   51 2
    50   43   47 1
    51   44   47 1
    52   45   46 1
    53   46   52 1
    54   47   53 1
    55   48   49 2
