@<TRIPOS>MOLECULE
****
   89    92     0     0     0
SMALL
NO_CHARGES

@<TRIPOS>ATOM
      1 H1         21.4390   59.7500   14.6400 H         1 <0>         0.0000
      2 H2          8.3560   58.7720   13.0370 H         1 <0>         0.0000
      3 H3         20.2010   60.1200   16.7090 H         1 <0>         0.0000
      4 H4         20.3360   60.0340   12.5020 H         1 <0>         0.0000
      5 H5          9.5220   59.4840   11.0120 H         1 <0>         0.0000
      6 H6          9.5200   58.7880   15.2090 H         1 <0>         0.0000
      7 H7         18.0620   72.9940    6.8930 H         1 <0>         0.0000
      8 H8         21.1160   70.9080    4.8080 H         1 <0>         0.0000
      9 H9         17.8020   60.5940   16.6160 H         1 <0>         0.0000
     10 H10        17.9180   60.1050   12.3790 H         1 <0>         0.0000
     11 H11        11.8750   60.1540   11.1570 H         1 <0>         0.0000
     12 H12        11.8810   59.3990   15.3650 H         1 <0>         0.0000
     13 H13        16.8750   70.8850    7.2110 H         1 <0>         0.0000
     14 H14        19.9580   68.8310    5.1300 H         1 <0>         0.0000
     15 H15        15.0470   61.6370    8.5580 H         1 <0>         0.0000
     16 H16        18.3460   62.9590   10.5060 H         1 <0>         0.0000
     17 H17        26.6880   66.5010   10.6950 H         1 <0>         0.0000
     18 H18        25.7970   66.4730    9.3270 H         1 <0>         0.0000
     19 H19        25.1410   67.0250   10.7170 H         1 <0>         0.0000
     20 H20        16.5250   68.5120    5.6710 H         1 <0>         0.0000
     21 H21        17.8960   67.6460    5.4810 H         1 <0>         0.0000
     22 H22        15.7420   59.3600   14.8080 H         1 <0>         0.0000
     23 H23        15.6680   60.9710   15.0670 H         1 <0>         0.0000
     24 H24        13.9120   58.7570   13.9750 H         1 <0>         0.0000
     25 H25        13.8580   58.8330   12.3450 H         1 <0>         0.0000
     26 H26        13.7860   61.9530   10.6320 H         1 <0>         0.0000
     27 H27        14.4580   60.4880   10.3680 H         1 <0>         0.0000
     28 H28        19.4620   61.5400    8.6830 H         1 <0>         0.0000
     29 H29        19.0630   62.7890    7.7100 H         1 <0>         0.0000
     30 H30        25.2950   64.8240   11.6630 H         1 <0>         0.0000
     31 H31        25.9510   64.2720   10.2720 H         1 <0>         0.0000
     32 H32        16.6400   67.9930    8.0430 H         1 <0>         0.0000
     33 H33        16.2580   66.7580    7.0450 H         1 <0>         0.0000
     34 H34        21.1660   63.3210    8.0470 H         1 <0>         0.0000
     35 H35        20.5230   64.1030    9.3280 H         1 <0>         0.0000
     36 H36        23.9400   64.2830    9.1890 H         1 <0>         0.0000
     37 H37        23.2430   65.2180   10.3320 H         1 <0>         0.0000
     38 H38        21.2690   62.0710   10.6130 H         1 <0>         0.0000
     39 H39        22.2480   61.8220    9.3300 H         1 <0>         0.0000
     40 H40        22.6620   63.4500   11.5950 H         1 <0>         0.0000
     41 H41        23.7070   62.4520   10.8330 H         1 <0>         0.0000
     42 H42        18.3530   65.7390    7.5310 H         1 <0>         0.0000
     43 H43        18.6960   66.9610    8.5590 H         1 <0>         0.0000
     44 H44        18.0430   65.6000   10.1460 H         1 <0>         0.0000
     45 H45        16.5250   65.9800    9.6790 H         1 <0>         0.0000
     46 C1         20.4600   59.9520   14.6060 C.ar      1 <0>         0.0000
     47 C2          9.3160   59.0480   13.0840 C.ar      1 <0>         0.0000
     48 C3         19.7280   60.1480   15.8290 C.ar      1 <0>         0.0000
     49 C4         19.7970   60.0440   13.3440 C.ar      1 <0>         0.0000
     50 C5         10.0020   59.4530   11.8890 C.ar      1 <0>         0.0000
     51 C6         10.0210   59.0370   14.3800 C.ar      1 <0>         0.0000
     52 C7         18.4360   72.1490    6.5090 C.ar      1 <0>         0.0000
     53 C8         20.2350   70.9100    5.2810 C.ar      1 <0>         0.0000
     54 C9         18.3010   60.3860   15.7750 C.ar      1 <0>         0.0000
     55 C10        18.3720   60.1500   13.2690 C.ar      1 <0>         0.0000
     56 C11        11.4090   59.8170   11.9760 C.ar      1 <0>         0.0000
     57 C12        11.4280   59.3810   14.4740 C.ar      1 <0>         0.0000
     58 C13        17.7350   70.8900    6.7010 C.ar      1 <0>         0.0000
     59 C14        19.5480   69.6760    5.4740 C.ar      1 <0>         0.0000
     60 C15        19.6840   72.1790    5.7570 C.ar      1 <0>         0.0000
     61 C16        18.2610   69.6140    6.1620 C.ar      1 <0>         0.0000
     62 C17        17.5710   60.3240   14.4840 C.ar      1 <0>         0.0000
     63 C18        12.1820   59.7020   13.2590 C.ar      1 <0>         0.0000
     64 C19        15.7050   63.5340    9.0970 C.2       1 <0>         0.0000
     65 C20        20.3760   73.4420    5.4510 C.2       1 <0>         0.0000
     66 C21        15.1760   61.4050   12.1560 C.2       1 <0>         0.0000
     67 C22        15.4470   62.0290    9.3860 C.3       1 <0>         0.0000
     68 C23        18.0200   62.8370    9.5680 C.3       1 <0>         0.0000
     69 C24        25.7720   66.3580   10.3200 C.3       1 <0>         0.0000
     70 C25        17.3930   68.2540    6.0950 C.3       1 <0>         0.0000
     71 C26        15.9560   60.2590   14.4260 C.3       1 <0>         0.0000
     72 C27        13.7400   59.3530   13.1910 C.3       1 <0>         0.0000
     73 C28        14.6450   61.4410   10.6070 C.3       1 <0>         0.0000
     74 C29        19.3140   62.5280    8.6420 C.3       1 <0>         0.0000
     75 C30        25.2850   64.9060   10.6660 C.3       1 <0>         0.0000
     76 C31        16.9980   67.3490    7.3670 C.3       1 <0>         0.0000
     77 C32        20.7210   63.2050    8.9350 C.3       1 <0>         0.0000
     78 C33        23.8430   64.4340   10.1730 C.3       1 <0>         0.0000
     79 C34        21.8150   62.5170    9.9040 C.3       1 <0>         0.0000
     80 C35        23.0330   63.1800   10.7060 C.3       1 <0>         0.0000
     81 C36        17.9660   66.3890    8.1850 C.3       1 <0>         0.0000
     82 C37        17.3740   65.5280    9.4060 C.3       1 <0>         0.0000
     83 N1         17.0270   63.9800    9.2720 N.am      1 <0>         0.0000
     84 N2         14.9190   60.4080   13.2010 N.am      1 <0>         0.0000
     85 O1         21.0540   73.5760    4.3740 O.co2     1 <0>         0.0000
     86 O2         14.7380   64.2190    8.6530 O.2       1 <0>         0.0000
     87 O3         20.3420   74.3690    6.2940 O.co2     1 <0>         0.0000
     88 O4         15.9240   62.3960   12.4020 O.2       1 <0>         0.0000
     89 S1         17.0450   61.3720    9.5360 S.3       1 <0>         0.0000
@<TRIPOS>BOND
     1    1   46 1
     2    2   47 1
     3    3   48 1
     4    4   49 1
     5    5   50 1
     6    6   51 1
     7    7   52 1
     8    8   53 1
     9    9   54 1
    10   10   55 1
    11   11   56 1
    12   12   57 1
    13   13   58 1
    14   14   59 1
    15   15   67 1
    16   16   68 1
    17   17   69 1
    18   18   69 1
    19   19   69 1
    20   20   70 1
    21   21   70 1
    22   22   71 1
    23   23   71 1
    24   24   72 1
    25   25   72 1
    26   26   73 1
    27   27   73 1
    28   28   74 1
    29   29   74 1
    30   30   75 1
    31   31   75 1
    32   32   76 1
    33   33   76 1
    34   34   77 1
    35   35   77 1
    36   36   78 1
    37   37   78 1
    38   38   79 1
    39   39   79 1
    40   40   80 1
    41   41   80 1
    42   42   81 1
    43   43   81 1
    44   44   82 1
    45   45   82 1
    46   46   48 ar
    47   46   49 ar
    48   47   50 ar
    49   47   51 ar
    50   48   54 ar
    51   49   55 ar
    52   50   56 ar
    53   51   57 ar
    54   52   58 ar
    55   52   60 ar
    56   53   59 ar
    57   53   60 ar
    58   54   62 ar
    59   55   62 ar
    60   56   63 ar
    61   57   63 ar
    62   58   61 ar
    63   59   61 ar
    64   60   65 1
    65   61   70 1
    66   62   71 1
    67   63   72 1
    68   64   67 1
    69   64   83 am
    70   64   86 2
    71   65   85 1
    72   65   87 2
    73   66   73 1
    74   66   84 am
    75   66   88 2
    76   67   73 1
    77   67   89 1
    78   68   74 1
    79   68   83 1
    80   68   89 1
    81   69   75 1
    82   70   76 1
    83   71   84 1
    84   72   84 1
    85   74   77 1
    86   75   78 1
    87   76   81 1
    88   77   79 1
    89   78   80 1
    90   79   80 1
    91   81   82 1
    92   82   83 1
