@<TRIPOS>MOLECULE
****
   43    46     0     0     0
SMALL
NO_CHARGES

@<TRIPOS>ATOM
      1 H1        111.0630   34.8990    8.4890 H         1 <0>         0.0000
      2 H2        108.8740   35.5110    7.7220 H         1 <0>         0.0000
      3 H3        111.3860   32.8640    9.7020 H         1 <0>         0.0000
      4 H4        107.0140   34.0770    8.1710 H         1 <0>         0.0000
      5 H5        110.4170   30.7440   10.7120 H         1 <0>         0.0000
      6 H6        110.4720   28.6010   15.2600 H         1 <0>         0.0000
      7 H7        112.6660   27.6960   11.8860 H         1 <0>         0.0000
      8 H8        115.3890   28.2480   11.4640 H         1 <0>         0.0000
      9 H9        116.3610   31.8750   14.4000 H         1 <0>         0.0000
     10 H10       106.3340   30.1110   10.2670 H         1 <0>         0.0000
     11 H11       112.6560   27.8180   15.5740 H         1 <0>         0.0000
     12 C1        110.2830   34.3010    8.6760 C.ar      1 <0>         0.0000
     13 C2        109.0080   34.6590    8.2280 C.ar      1 <0>         0.0000
     14 C3        110.4720   33.1140    9.3830 C.ar      1 <0>         0.0000
     15 C4        107.9280   33.8260    8.4890 C.ar      1 <0>         0.0000
     16 C5        109.5190   31.0300   10.3770 C.ar      1 <0>         0.0000
     17 C6        110.5400   28.5180   14.2660 C.ar      1 <0>         0.0000
     18 C7        111.8100   27.9920   12.3100 C.ar      1 <0>         0.0000
     19 C8        115.5920   29.0090   12.0800 C.ar      1 <0>         0.0000
     20 C9        116.1580   31.1140   13.7840 C.ar      1 <0>         0.0000
     21 C10       107.1490   30.6700   10.1160 C.ar      1 <0>         0.0000
     22 C11       109.3640   32.2560    9.6520 C.ar      1 <0>         0.0000
     23 C12       108.1230   32.6090    9.2130 C.ar      1 <0>         0.0000
     24 C13       111.7200   28.1050   13.6910 C.ar      1 <0>         0.0000
     25 C14       108.3840   30.2400   10.6060 C.ar      1 <0>         0.0000
     26 C15       109.5240   28.7250   12.0930 C.ar      1 <0>         0.0000
     27 C16       116.2350   30.1360   11.5960 C.ar      1 <0>         0.0000
     28 C17       115.5150   29.9850   14.2690 C.ar      1 <0>         0.0000
     29 C18       115.2300   28.9330   13.4140 C.ar      1 <0>         0.0000
     30 C19       109.4510   28.8180   13.4740 C.ar      1 <0>         0.0000
     31 C20       110.7070   28.2910   11.5180 C.ar      1 <0>         0.0000
     32 C21       116.5200   31.1920   12.4470 C.ar      1 <0>         0.0000
     33 N1        107.0490   31.8100    9.4550 N.ar      1 <0>         0.0000
     34 N2        112.8250   27.8080   14.5880 N.pl3     1 <0>         0.0000
     35 O1        115.1930   26.8310   15.0990 O.2       1 <0>         0.0000
     36 O2        114.3810   26.3730   13.0340 O.2       1 <0>         0.0000
     37 O3        108.4030   29.0100   11.2950 O.3       1 <0>         0.0000
     38 F1        116.5860   30.2040   10.2800 F         1 <0>         0.0000
     39 F2        115.1620   29.9140   15.5860 F         1 <0>         0.0000
     40 S1        114.3950   27.4440   14.0340 S.o2      1 <0>         0.0000
     41 Cl1       107.9670   29.3400   14.2900 Cl        1 <0>         0.0000
     42 Cl2       110.7990   28.1520    9.7440 Cl        1 <0>         0.0000
     43 Br1       117.4230   32.7730   11.7650 Br        1 <0>         0.0000
@<TRIPOS>BOND
     1    1   12 1
     2    2   13 1
     3    3   14 1
     4    4   15 1
     5    5   16 1
     6    6   17 1
     7    7   18 1
     8    8   19 1
     9    9   20 1
    10   10   21 1
    11   11   34 1
    12   12   13 ar
    13   12   14 ar
    14   13   15 ar
    15   14   22 ar
    16   15   23 ar
    17   16   22 ar
    18   16   25 ar
    19   17   24 ar
    20   17   30 ar
    21   18   24 ar
    22   18   31 ar
    23   19   27 ar
    24   19   29 ar
    25   20   28 ar
    26   20   32 ar
    27   21   25 ar
    28   21   33 ar
    29   22   23 ar
    30   23   33 ar
    31   24   34 1
    32   25   37 1
    33   26   30 ar
    34   26   31 ar
    35   26   37 1
    36   27   32 ar
    37   27   38 1
    38   28   29 ar
    39   28   39 1
    40   29   40 1
    41   30   41 1
    42   31   42 1
    43   32   43 1
    44   34   40 1
    45   35   40 2
    46   36   40 2
