@<TRIPOS>MOLECULE
****
   29    30     0     0     0
SMALL
NO_CHARGES

@<TRIPOS>ATOM
      1 H1         33.6320  -12.2940  -13.5400 H         1 <0>         0.0000
      2 H2         37.4390  -13.0980  -12.1800 H         1 <0>         0.0000
      3 H3         32.7240  -13.8730  -12.0210 H         1 <0>         0.0000
      4 H4         36.5350  -14.6520  -10.6220 H         1 <0>         0.0000
      5 H5         37.6520  -13.6670  -14.6340 H         1 <0>         0.0000
      6 H6         41.3970  -11.9360  -15.2860 H         1 <0>         0.0000
      7 H7         39.4020  -14.9940  -15.0700 H         1 <0>         0.0000
      8 H8         40.5220  -14.3920  -16.0940 H         1 <0>         0.0000
      9 H9         40.8480  -14.4960  -14.4970 H         1 <0>         0.0000
     10 H10        35.6360  -11.7230  -14.9370 H         1 <0>         0.0000
     11 H11        35.9340  -10.6470  -13.7460 H         1 <0>         0.0000
     12 H12        34.6520  -15.7630   -9.6370 H         1 <0>         0.0000
     13 C1         34.2530  -12.8020  -12.9430 C.ar      1 <0>         0.0000
     14 C2         36.4520  -13.2560  -12.1600 C.ar      1 <0>         0.0000
     15 C3         33.7100  -13.7100  -12.0430 C.ar      1 <0>         0.0000
     16 C4         35.9230  -14.1610  -11.2410 C.ar      1 <0>         0.0000
     17 C5         38.2160  -12.8420  -14.6740 C.2       1 <0>         0.0000
     18 C6         40.4250  -11.8420  -15.0720 C.2       1 <0>         0.0000
     19 C7         35.6270  -12.5640  -13.0550 C.ar      1 <0>         0.0000
     20 C8         39.5880  -12.9650  -14.9750 C.2       1 <0>         0.0000
     21 C9         34.5530  -14.3870  -11.1770 C.ar      1 <0>         0.0000
     22 C10        37.6180  -11.5970  -14.4290 C.2       1 <0>         0.0000
     23 C11        39.8160  -10.5190  -14.8460 C.2       1 <0>         0.0000
     24 C12        40.1340  -14.3210  -15.1750 C.3       1 <0>         0.0000
     25 C13        36.1410  -11.5630  -14.0890 C.3       1 <0>         0.0000
     26 N1         38.4340  -10.4160  -14.5340 N.am      1 <0>         0.0000
     27 O1         37.9280   -9.2250  -14.3320 O.3       1 <0>         0.0000
     28 O2         40.6480   -9.4170  -14.9480 O.2       1 <0>         0.0000
     29 O3         34.0390  -15.2770  -10.2600 O.3       1 <0>         0.0000
@<TRIPOS>BOND
     1    1   13 1
     2    2   14 1
     3    3   15 1
     4    4   16 1
     5    5   17 1
     6    6   18 1
     7    7   24 1
     8    8   24 1
     9    9   24 1
    10   10   25 1
    11   11   25 1
    12   12   29 1
    13   13   15 ar
    14   13   19 ar
    15   14   16 ar
    16   14   19 ar
    17   15   21 ar
    18   16   21 ar
    19   17   20 1
    20   17   22 2
    21   18   20 2
    22   18   23 1
    23   19   25 1
    24   20   24 1
    25   21   29 1
    26   22   25 1
    27   22   26 1
    28   23   26 am
    29   23   28 2
    30   26   27 1
