@<TRIPOS>MOLECULE
****
   27    28     0     0     0
SMALL
NO_CHARGES

@<TRIPOS>ATOM
      1 H1         41.9110   -9.1460  -14.4100 H         1 <0>         0.0000
      2 H2         43.3960   -7.2650  -14.5770 H         1 <0>         0.0000
      3 H3         45.0760  -11.5880  -13.1590 H         1 <0>         0.0000
      4 H4         38.0800   -9.1920  -15.0890 H         1 <0>         0.0000
      5 H5         37.5110  -10.3610  -16.0770 H         1 <0>         0.0000
      6 H6         37.0310  -10.3050  -14.5170 H         1 <0>         0.0000
      7 H7         42.8350  -12.5430  -14.1580 H         1 <0>         0.0000
      8 H8         42.3920  -12.0520  -12.6650 H         1 <0>         0.0000
      9 H9         40.3520  -13.8250  -14.2100 H         1 <0>         0.0000
     10 H10        46.5870   -9.7150  -13.3450 H         1 <0>         0.0000
     11 C1         41.0000  -11.6810  -14.0930 C.3       1 <0>         0.0000
     12 C2         42.8770   -9.2700  -14.1840 C.2       1 <0>         0.0000
     13 C3         43.7430   -8.1580  -14.2900 C.2       1 <0>         0.0000
     14 C4         44.7170  -10.7040  -13.4570 C.2       1 <0>         0.0000
     15 C5         40.1170  -10.4930  -14.4120 C.2       1 <0>         0.0000
     16 C6         43.3300  -10.5950  -13.7590 C.2       1 <0>         0.0000
     17 C7         45.1510   -8.3410  -13.9730 C.2       1 <0>         0.0000
     18 C8         38.7870  -12.3660  -14.7570 C.2       1 <0>         0.0000
     19 C9         37.7960  -10.1490  -15.1420 C.3       1 <0>         0.0000
     20 C10        42.4170  -11.8020  -13.6330 C.3       1 <0>         0.0000
     21 N1         40.1000  -12.8650  -14.3270 N.pl3     1 <0>         0.0000
     22 N2         45.6190   -9.5930  -13.5640 N.am      1 <0>         0.0000
     23 N3         38.8960  -10.9950  -14.7730 N.am      1 <0>         0.0000
     24 O1         40.4300   -9.3040  -14.3650 O.2       1 <0>         0.0000
     25 O2         46.0040   -7.2720  -14.0720 O.2       1 <0>         0.0000
     26 S1         37.4820  -13.3210  -15.1250 S.2       1 <0>         0.0000
     27 H11        41.0000  -11.6810  -14.0930 H         1 <0>         0.0000
@<TRIPOS>BOND
     1    1   12 1
     2    2   13 1
     3    3   14 1
     4    4   19 1
     5    5   19 1
     6    6   19 1
     7    7   20 1
     8    8   20 1
     9    9   21 1
    10   10   22 1
    11   11   15 1
    12   11   20 1
    13   11   21 1
    14   12   13 2
    15   12   16 1
    16   13   17 1
    17   14   16 2
    18   14   22 1
    19   15   23 am
    20   15   24 2
    21   16   20 1
    22   17   22 am
    23   17   25 2
    24   18   21 1
    25   18   23 1
    26   18   26 2
    27   19   23 1
    28   11   27 1
