@<TRIPOS>MOLECULE
****
   71    76     0     0     0
SMALL
NO_CHARGES

@<TRIPOS>ATOM
      1 H1         12.6820   25.8430  185.5430 H         1 <0>         0.0000
      2 H2         10.7590   24.8430  186.5670 H         1 <0>         0.0000
      3 H3         19.3260   23.2840  186.1570 H         1 <0>         0.0000
      4 H4         17.7540   22.8690  186.0000 H         1 <0>         0.0000
      5 H5         17.0100   21.5890  183.9780 H         1 <0>         0.0000
      6 H6         18.1040   21.1750  182.8390 H         1 <0>         0.0000
      7 H7         20.4910   21.7700  183.1270 H         1 <0>         0.0000
      8 H8         20.9750   22.6050  184.4450 H         1 <0>         0.0000
      9 H9         20.3160   25.0010  184.7070 H         1 <0>         0.0000
     10 H10        19.4190   25.7280  183.5530 H         1 <0>         0.0000
     11 H11        18.6920   24.4550  181.5540 H         1 <0>         0.0000
     12 H12        19.1040   22.8840  181.3890 H         1 <0>         0.0000
     13 H13        10.4690   21.9730  188.9780 H         1 <0>         0.0000
     14 H14        11.3310   20.9090  188.0890 H         1 <0>         0.0000
     15 H15         8.9510   22.4200  185.4470 H         1 <0>         0.0000
     16 H16         8.5210   23.2450  186.7890 H         1 <0>         0.0000
     17 H17         8.0550   22.1260  188.9880 H         1 <0>         0.0000
     18 H18        19.1260   21.1930  185.0070 H         1 <0>         0.0000
     19 H19        18.0540   25.1590  185.4260 H         1 <0>         0.0000
     20 H20        16.8430   23.0550  182.1090 H         1 <0>         0.0000
     21 H21         9.3430   19.5430  188.1110 H         1 <0>         0.0000
     22 H22         7.7430   20.5720  186.4200 H         1 <0>         0.0000
     23 H23        17.0050   25.1180  183.2890 H         1 <0>         0.0000
     24 H24        14.9090   17.7200  183.2400 H         1 <0>         0.0000
     25 H25        14.6000   16.5020  184.2820 H         1 <0>         0.0000
     26 H26        13.6940   17.8600  184.3220 H         1 <0>         0.0000
     27 H27        15.7910   18.1930  187.2430 H         1 <0>         0.0000
     28 H28        14.2310   18.1480  186.7610 H         1 <0>         0.0000
     29 H29        15.1370   16.7900  186.7220 H         1 <0>         0.0000
     30 H30        16.3460   19.9860  185.6270 H         1 <0>         0.0000
     31 H31        16.0350   19.7880  184.0360 H         1 <0>         0.0000
     32 H32        13.6960   19.9340  184.4830 H         1 <0>         0.0000
     33 H33        14.0170   20.1530  186.0690 H         1 <0>         0.0000
     34 H34        16.4790   17.7040  185.0220 H         1 <0>         0.0000
     35 H35        15.9560   22.9610  184.9220 H         1 <0>         0.0000
     36 H36        21.0050   25.0450  181.8780 H         1 <0>         0.0000
     37 C1         12.6200   24.8490  185.6380 C.ar      1 <0>         0.0000
     38 C2         11.5040   24.2650  186.2330 C.ar      1 <0>         0.0000
     39 C3         13.6460   24.0340  185.1780 C.ar      1 <0>         0.0000
     40 C4         11.4190   22.8820  186.3660 C.ar      1 <0>         0.0000
     41 C5         13.5120   22.5670  185.3450 C.ar      1 <0>         0.0000
     42 C6         14.8730   24.6110  184.5330 C.2       1 <0>         0.0000
     43 C7          7.0080   20.2030  188.8800 C.2       1 <0>         0.0000
     44 C8         18.5790   23.1460  185.5070 C.3       1 <0>         0.0000
     45 C9         17.8420   21.8750  183.5030 C.3       1 <0>         0.0000
     46 C10        20.2340   22.4780  183.7850 C.3       1 <0>         0.0000
     47 C11        19.5810   24.8710  184.0420 C.3       1 <0>         0.0000
     48 C12        18.8510   23.5970  182.0420 C.3       1 <0>         0.0000
     49 C13        10.4820   21.4360  188.1350 C.3       1 <0>         0.0000
     50 C14         8.9620   22.4150  186.4470 C.3       1 <0>         0.0000
     51 C15         8.0050   21.2540  188.5010 C.3       1 <0>         0.0000
     52 C16        18.9670   22.0520  184.5200 C.3       1 <0>         0.0000
     53 C17        18.3080   24.4510  184.7670 C.3       1 <0>         0.0000
     54 C18        17.5790   23.1860  182.7730 C.3       1 <0>         0.0000
     55 C19         9.2580   20.5360  188.0260 C.3       1 <0>         0.0000
     56 C20         8.3020   21.1560  187.0090 C.3       1 <0>         0.0000
     57 C21        17.1730   24.2590  183.7720 C.3       1 <0>         0.0000
     58 C22        19.9810   23.7880  183.0480 C.3       1 <0>         0.0000
     59 C23        14.6120   17.4950  184.1680 C.3       1 <0>         0.0000
     60 C24        15.1470   17.7820  186.5970 C.3       1 <0>         0.0000
     61 C25        15.6980   19.6150  184.9620 C.3       1 <0>         0.0000
     62 C26        14.3510   20.3090  185.1390 C.3       1 <0>         0.0000
     63 C27        15.5770   18.1100  185.1730 C.3       1 <0>         0.0000
     64 N1         12.4060   22.0720  185.9290 N.ar      1 <0>         0.0000
     65 N2         10.3120   22.2760  186.9650 N.pl3     1 <0>         0.0000
     66 N3         15.9670   23.8520  184.4690 N.am      1 <0>         0.0000
     67 O1          6.5300   19.4820  187.9770 O.co2     1 <0>         0.0000
     68 O2         14.8420   25.7460  184.0860 O.2       1 <0>         0.0000
     69 O3          6.7000   20.0870  190.0850 O.co2     1 <0>         0.0000
     70 O4         21.1710   24.1860  182.3620 O.3       1 <0>         0.0000
     71 O5         14.4930   21.7120  184.9170 O.3       1 <0>         0.0000
@<TRIPOS>BOND
     1    1   37 1
     2    2   38 1
     3    3   44 1
     4    4   44 1
     5    5   45 1
     6    6   45 1
     7    7   46 1
     8    8   46 1
     9    9   47 1
    10   10   47 1
    11   11   48 1
    12   12   48 1
    13   13   49 1
    14   14   49 1
    15   15   50 1
    16   16   50 1
    17   17   51 1
    18   18   52 1
    19   19   53 1
    20   20   54 1
    21   21   55 1
    22   22   56 1
    23   23   57 1
    24   24   59 1
    25   25   59 1
    26   26   59 1
    27   27   60 1
    28   28   60 1
    29   29   60 1
    30   30   61 1
    31   31   61 1
    32   32   62 1
    33   33   62 1
    34   34   63 1
    35   35   66 1
    36   36   70 1
    37   37   38 ar
    38   37   39 ar
    39   38   40 ar
    40   39   41 ar
    41   39   42 1
    42   40   64 ar
    43   40   65 1
    44   41   64 ar
    45   41   71 1
    46   42   66 am
    47   42   68 2
    48   43   51 1
    49   43   67 1
    50   43   69 2
    51   44   52 1
    52   44   53 1
    53   45   52 1
    54   45   54 1
    55   46   52 1
    56   46   58 1
    57   47   53 1
    58   47   58 1
    59   48   54 1
    60   48   58 1
    61   49   55 1
    62   49   65 1
    63   50   56 1
    64   50   65 1
    65   51   55 1
    66   51   56 1
    67   53   57 1
    68   54   57 1
    69   55   56 1
    70   57   66 1
    71   58   70 1
    72   59   63 1
    73   60   63 1
    74   61   62 1
    75   61   63 1
    76   62   71 1
