@<TRIPOS>MOLECULE
****
   46    48     0     0     0
SMALL
NO_CHARGES

@<TRIPOS>ATOM
      1 H1         42.6490    8.4410  -47.9730 H         1 <0>         0.0000
      2 H2         40.5520    7.3490  -48.4110 H         1 <0>         0.0000
      3 H3         44.1660    8.9830  -49.7620 H         1 <0>         0.0000
      4 H4         39.9460    6.8020  -50.6770 H         1 <0>         0.0000
      5 H5         43.5820    8.3760  -52.0310 H         1 <0>         0.0000
      6 H6         41.4420    1.4190  -51.2120 H         1 <0>         0.0000
      7 H7         39.1870    2.1110  -51.7080 H         1 <0>         0.0000
      8 H8         46.1480    2.1080  -52.6180 H         1 <0>         0.0000
      9 H9         46.7710    3.1410  -51.5170 H         1 <0>         0.0000
     10 H10        44.6700    3.7630  -53.0740 H         1 <0>         0.0000
     11 H11        41.6180    9.0990  -53.8040 H         1 <0>         0.0000
     12 H12        40.8700    8.0640  -54.8220 H         1 <0>         0.0000
     13 H13        40.0450    8.7210  -53.5750 H         1 <0>         0.0000
     14 H14        44.2860    4.4380  -49.5500 H         1 <0>         0.0000
     15 H15        45.9180    4.3910  -49.5890 H         1 <0>         0.0000
     16 H16        45.1450    5.8240  -49.4650 H         1 <0>         0.0000
     17 H17        46.3350    5.8300  -52.8790 H         1 <0>         0.0000
     18 H18        46.3800    6.6630  -51.4750 H         1 <0>         0.0000
     19 H19        47.1520    5.2290  -51.5990 H         1 <0>         0.0000
     20 H20        42.2000    6.8460  -53.3740 H         1 <0>         0.0000
     21 H21        44.3030    5.6170  -51.6380 H         1 <0>         0.0000
     22 H22        39.5360    6.1890  -53.3470 H         1 <0>         0.0000
     23 C1         42.4040    8.2080  -48.9140 C.ar      1 <0>         0.0000
     24 C2         41.1700    7.5700  -49.1660 C.ar      1 <0>         0.0000
     25 C3         43.2990    8.5240  -49.9570 C.ar      1 <0>         0.0000
     26 C4         40.8190    7.2490  -50.4840 C.ar      1 <0>         0.0000
     27 C5         42.9510    8.1810  -51.2800 C.ar      1 <0>         0.0000
     28 C6         41.2530    2.3390  -51.5560 C.ar      1 <0>         0.0000
     29 C7         39.9400    2.7530  -51.8510 C.ar      1 <0>         0.0000
     30 C8         41.7080    7.5610  -51.5410 C.ar      1 <0>         0.0000
     31 C9         42.2970    3.2760  -51.7660 C.ar      1 <0>         0.0000
     32 C10        40.7050    4.7760  -52.4930 C.ar      1 <0>         0.0000
     33 C11        44.0810    1.9200  -50.6400 C.2       1 <0>         0.0000
     34 C12        45.9440    2.6610  -51.8100 C.3       1 <0>         0.0000
     35 C13        44.8020    3.6480  -52.0890 C.3       1 <0>         0.0000
     36 C14        40.9340    8.3720  -53.8730 C.3       1 <0>         0.0000
     37 C15        45.1090    4.9090  -49.8670 C.3       1 <0>         0.0000
     38 C16        46.3470    5.7500  -51.8820 C.3       1 <0>         0.0000
     39 C17        41.3490    7.1880  -52.9750 C.3       1 <0>         0.0000
     40 C18        45.0750    5.0240  -51.4100 C.3       1 <0>         0.0000
     41 N1         39.6660    3.9850  -52.3190 N.ar      1 <0>         0.0000
     42 N2         41.9720    4.4920  -52.2280 N.ar      1 <0>         0.0000
     43 N3         43.6600    2.9400  -51.4950 N.am      1 <0>         0.0000
     44 N4         40.4480    6.0380  -52.9650 N.pl3     1 <0>         0.0000
     45 O1         43.4190    1.1880  -49.9050 O.2       1 <0>         0.0000
     46 O2         45.4220    1.8610  -50.7640 O.3       1 <0>         0.0000
@<TRIPOS>BOND
     1    1   23 1
     2    2   24 1
     3    3   25 1
     4    4   26 1
     5    5   27 1
     6    6   28 1
     7    7   29 1
     8    8   34 1
     9    9   34 1
    10   10   35 1
    11   11   36 1
    12   12   36 1
    13   13   36 1
    14   14   37 1
    15   15   37 1
    16   16   37 1
    17   17   38 1
    18   18   38 1
    19   19   38 1
    20   20   39 1
    21   21   40 1
    22   22   44 1
    23   23   24 ar
    24   23   25 ar
    25   24   26 ar
    26   25   27 ar
    27   26   30 ar
    28   27   30 ar
    29   28   29 ar
    30   28   31 ar
    31   29   41 ar
    32   30   39 1
    33   31   42 ar
    34   31   43 1
    35   32   41 ar
    36   32   42 ar
    37   32   44 1
    38   33   43 am
    39   33   45 2
    40   33   46 1
    41   34   35 1
    42   34   46 1
    43   35   40 1
    44   35   43 1
    45   36   39 1
    46   37   40 1
    47   38   40 1
    48   39   44 1
