@<TRIPOS>MOLECULE
****
   40    41     0     0     0
SMALL
NO_CHARGES

@<TRIPOS>ATOM
      1 H1        -60.5000   34.4650  -23.8600 H         1 <0>         0.0000
      2 H2        -60.5850   36.8510  -23.6140 H         1 <0>         0.0000
      3 H3        -59.5320   33.1680  -22.0720 H         1 <0>         0.0000
      4 H4        -56.2970   43.6610  -19.9950 H         1 <0>         0.0000
      5 H5        -56.0350   42.3460  -19.0630 H         1 <0>         0.0000
      6 H6        -56.1160   42.1930  -20.6870 H         1 <0>         0.0000
      7 H7        -62.9880   44.0620  -22.9910 H         1 <0>         0.0000
      8 H8        -63.5870   42.7020  -23.6670 H         1 <0>         0.0000
      9 H9        -63.3170   42.7630  -22.0580 H         1 <0>         0.0000
     10 H10       -58.4280   42.7920  -20.6240 H         1 <0>         0.0000
     11 H11       -60.9600   42.9150  -22.4690 H         1 <0>         0.0000
     12 H12       -57.8450   40.5330  -18.8810 H         1 <0>         0.0000
     13 H13       -62.2290   40.5940  -23.6750 H         1 <0>         0.0000
     14 C1        -60.1430   34.9080  -23.0380 C.ar      1 <0>         0.0000
     15 C2        -60.1890   36.2850  -22.8910 C.ar      1 <0>         0.0000
     16 C3        -59.5870   34.1650  -22.0110 C.ar      1 <0>         0.0000
     17 C4        -59.6870   36.8780  -21.7450 C.ar      1 <0>         0.0000
     18 C5        -59.1090   34.8330  -20.8970 C.ar      1 <0>         0.0000
     19 C6        -59.7490   38.3940  -21.5980 C.ar      1 <0>         0.0000
     20 C7        -59.0700   40.3380  -20.6160 C.ar      1 <0>         0.0000
     21 C8        -60.6530   40.3840  -22.2590 C.ar      1 <0>         0.0000
     22 C9        -56.4780   42.6830  -19.8940 C.3       1 <0>         0.0000
     23 C10       -62.9870   43.0630  -22.9530 C.3       1 <0>         0.0000
     24 C11       -57.9810   42.4520  -19.7970 C.3       1 <0>         0.0000
     25 C12       -61.5700   42.5480  -23.1710 C.3       1 <0>         0.0000
     26 C13       -58.5200   43.1950  -18.5800 C.3       1 <0>         0.0000
     27 C14       -61.0950   42.9780  -24.5530 C.3       1 <0>         0.0000
     28 N1        -59.1670   36.1430  -20.7860 N.ar      1 <0>         0.0000
     29 N2        -58.9940   39.0260  -20.7210 N.ar      1 <0>         0.0000
     30 N3        -60.5760   39.0750  -22.3640 N.ar      1 <0>         0.0000
     31 N4        -59.8990   41.0190  -21.3840 N.ar      1 <0>         0.0000
     32 N5        -58.2400   41.0340  -19.6510 N.pl3     1 <0>         0.0000
     33 N6        -61.5770   41.1050  -23.1150 N.pl3     1 <0>         0.0000
     34 F1        -59.7120   43.7710  -18.8960 F         1 <0>         0.0000
     35 F2        -57.6390   44.1610  -18.2080 F         1 <0>         0.0000
     36 F3        -58.6880   42.3280  -17.5480 F         1 <0>         0.0000
     37 F4        -59.7500   43.1770  -24.5210 F         1 <0>         0.0000
     38 F5        -61.7210   44.1320  -24.9090 F         1 <0>         0.0000
     39 F6        -61.3850   42.0050  -25.4610 F         1 <0>         0.0000
     40 Cl1       -58.3930   33.8930  -19.5700 Cl        1 <0>         0.0000
@<TRIPOS>BOND
     1    1   14 1
     2    2   15 1
     3    3   16 1
     4    4   22 1
     5    5   22 1
     6    6   22 1
     7    7   23 1
     8    8   23 1
     9    9   23 1
    10   10   24 1
    11   11   25 1
    12   12   32 1
    13   13   33 1
    14   14   15 ar
    15   14   16 ar
    16   15   17 ar
    17   16   18 ar
    18   17   19 1
    19   17   28 ar
    20   18   28 ar
    21   18   40 1
    22   19   29 ar
    23   19   30 ar
    24   20   29 ar
    25   20   31 ar
    26   20   32 1
    27   21   30 ar
    28   21   31 ar
    29   21   33 1
    30   22   24 1
    31   23   25 1
    32   24   26 1
    33   24   32 1
    34   25   27 1
    35   25   33 1
    36   26   34 1
    37   26   35 1
    38   26   36 1
    39   27   37 1
    40   27   38 1
    41   27   39 1
