@<TRIPOS>MOLECULE
****
   61    67     0     0     0
SMALL
NO_CHARGES

@<TRIPOS>ATOM
      1 H1         57.0040  -30.7250   -7.8460 H         1 <0>         0.0000
      2 H2         59.0280  -27.5560   -6.0760 H         1 <0>         0.0000
      3 H3         57.5080  -29.8150  -10.0110 H         1 <0>         0.0000
      4 H4         58.8030  -27.8100  -10.2000 H         1 <0>         0.0000
      5 H5         63.3690  -20.6090   -2.8660 H         1 <0>         0.0000
      6 H6         62.8600  -18.9820   -4.5870 H         1 <0>         0.0000
      7 H7         63.0560  -24.8210   -5.0920 H         1 <0>         0.0000
      8 H8         62.5050  -24.5080   -7.3530 H         1 <0>         0.0000
      9 H9         63.2170  -23.2080   -2.5540 H         1 <0>         0.0000
     10 H10        61.9210  -22.7670   -1.6640 H         1 <0>         0.0000
     11 H11        63.6130  -26.6510   -0.3760 H         1 <0>         0.0000
     12 H12        63.4600  -25.0270   -0.3030 H         1 <0>         0.0000
     13 H13        61.9790  -25.2580    1.7130 H         1 <0>         0.0000
     14 H14        62.1320  -26.8820    1.6400 H         1 <0>         0.0000
     15 H15        58.3220  -22.6220   -3.7750 H         1 <0>         0.0000
     16 H16        58.3360  -24.2500   -3.9010 H         1 <0>         0.0000
     17 H17        59.7530  -22.6880   -1.9290 H         1 <0>         0.0000
     18 H18        58.5450  -23.7440   -1.6290 H         1 <0>         0.0000
     19 H19        60.4370  -25.4130   -4.4160 H         1 <0>         0.0000
     20 H20        60.3920  -23.6240   -7.9760 H         1 <0>         0.0000
     21 H21        61.1370  -26.8950   -0.6310 H         1 <0>         0.0000
     22 H22        62.1690  -25.1770   -2.7510 H         1 <0>         0.0000
     23 H23        58.6200  -23.4520   -6.0780 H         1 <0>         0.0000
     24 H24        59.9220  -24.7040   -0.0310 H         1 <0>         0.0000
     25 H25        61.3360  -23.9670   -0.3850 H         1 <0>         0.0000
     26 H26        58.7890  -25.5150   -6.6810 H         1 <0>         0.0000
     27 H27        60.3370  -19.4960   -7.1470 H         1 <0>         0.0000
     28 C1         57.9730  -29.2090   -6.7750 C.ar      1 <0>         0.0000
     29 C2         57.5290  -29.8770   -7.9260 C.ar      1 <0>         0.0000
     30 C3         58.7040  -28.0200   -6.9010 C.ar      1 <0>         0.0000
     31 C4         57.8260  -29.3480   -9.1860 C.ar      1 <0>         0.0000
     32 C5         58.5700  -28.1630   -9.2940 C.ar      1 <0>         0.0000
     33 C6         62.6610  -20.7840   -3.5500 C.ar      1 <0>         0.0000
     34 C7         62.3660  -19.8500   -4.5490 C.ar      1 <0>         0.0000
     35 C8         58.9920  -27.4660   -8.1530 C.ar      1 <0>         0.0000
     36 C9         61.9260  -21.9700   -3.5490 C.ar      1 <0>         0.0000
     37 C10        60.9080  -22.1200   -4.4410 C.ar      1 <0>         0.0000
     38 C11        60.6700  -21.2830   -5.4640 C.ar      1 <0>         0.0000
     39 C12        61.3730  -20.1390   -5.4960 C.ar      1 <0>         0.0000
     40 C13        62.1120  -24.6400   -5.3700 C.2       1 <0>         0.0000
     41 C14        61.7880  -24.4410   -6.6590 C.2       1 <0>         0.0000
     42 C15        59.7920  -26.3170   -8.2430 C.2       1 <0>         0.0000
     43 C16        62.2280  -23.0600   -2.5690 C.3       1 <0>         0.0000
     44 C17        63.0110  -25.8990   -0.1090 C.3       1 <0>         0.0000
     45 C18        62.1160  -26.0380    1.1030 C.3       1 <0>         0.0000
     46 C19        58.8800  -23.4450   -3.6670 C.3       1 <0>         0.0000
     47 C20        59.3380  -23.5540   -2.2070 C.3       1 <0>         0.0000
     48 C21        60.9850  -24.5790   -4.3510 C.3       1 <0>         0.0000
     49 C22        60.3510  -24.1140   -7.1050 C.3       1 <0>         0.0000
     50 C23        61.4980  -26.0340   -0.2730 C.3       1 <0>         0.0000
     51 C24        61.5190  -24.4360   -2.9200 C.3       1 <0>         0.0000
     52 C25        59.5900  -23.2090   -6.0540 C.3       1 <0>         0.0000
     53 C26        60.0860  -23.3620   -4.6080 C.3       1 <0>         0.0000
     54 C27        60.7440  -24.7440   -0.6000 C.3       1 <0>         0.0000
     55 N1         59.5600  -25.3640   -7.3000 N.am      1 <0>         0.0000
     56 N2         60.3310  -24.6430   -2.0420 N.4       1 <0>         0.0000
     57 O1         60.7220  -26.2790   -9.0540 O.2       1 <0>         0.0000
     58 O2         59.7070  -21.7660   -6.3160 O.3       1 <0>         0.0000
     59 O3         61.0500  -19.2630   -6.4850 O.3       1 <0>         0.0000
     60 H28        57.7525  -29.6092   -5.7964 H         1 <0>         0.0000
     61 H29        59.8972  -25.5059   -2.3015 H         1 <0>         0.0000
@<TRIPOS>BOND
     1    1   29 1
     2    2   30 1
     3    3   31 1
     4    4   32 1
     5    5   33 1
     6    6   34 1
     7    7   40 1
     8    8   41 1
     9    9   43 1
    10   10   43 1
    11   11   44 1
    12   12   44 1
    13   13   45 1
    14   14   45 1
    15   15   46 1
    16   16   46 1
    17   17   47 1
    18   18   47 1
    19   19   48 1
    20   20   49 1
    21   21   50 1
    22   22   51 1
    23   23   52 1
    24   24   54 1
    25   25   54 1
    26   26   55 1
    27   27   59 1
    28   28   29 ar
    29   28   30 ar
    30   29   31 ar
    31   30   35 ar
    32   31   32 ar
    33   32   35 ar
    34   33   34 ar
    35   33   36 ar
    36   34   39 ar
    37   35   42 1
    38   36   37 ar
    39   36   43 1
    40   37   38 ar
    41   37   53 1
    42   38   39 ar
    43   38   58 1
    44   39   59 1
    45   40   41 2
    46   40   48 1
    47   41   49 1
    48   42   55 am
    49   42   57 2
    50   43   51 1
    51   44   45 1
    52   44   50 1
    53   45   50 1
    54   46   47 1
    55   46   53 1
    56   47   56 1
    57   48   51 1
    58   48   53 1
    59   49   52 1
    60   49   55 1
    61   50   54 1
    62   51   56 1
    63   52   53 1
    64   52   58 1
    65   54   56 1
    66   28   60 1
    67   56   61 1
