@<TRIPOS>MOLECULE
****
   54    56     0     0     0
SMALL
NO_CHARGES

@<TRIPOS>ATOM
      1 H1         -7.0370  -14.8520  -56.5210 H         1 <0>         0.0000
      2 H2         -6.7800  -16.1810  -54.5530 H         1 <0>         0.0000
      3 H3         -6.8640  -12.4740  -56.3990 H         1 <0>         0.0000
      4 H4         -6.3790  -15.1260  -52.4530 H         1 <0>         0.0000
      5 H5         -2.0910  -12.7050  -46.1100 H         1 <0>         0.0000
      6 H6          0.0150  -12.0880  -45.1710 H         1 <0>         0.0000
      7 H7          0.9650  -14.0590  -51.6250 H         1 <0>         0.0000
      8 H8          0.9230  -15.0740  -50.3470 H         1 <0>         0.0000
      9 H9         -6.2100  -10.6170  -53.3800 H         1 <0>         0.0000
     10 H10        -5.6450  -10.6200  -54.9120 H         1 <0>         0.0000
     11 H11        -7.2510  -10.5110  -54.6340 H         1 <0>         0.0000
     12 H12        -4.3140  -10.6020  -52.5200 H         1 <0>         0.0000
     13 H13        -4.7770  -10.3960  -50.9680 H         1 <0>         0.0000
     14 H14        -3.2420  -10.8340  -51.3100 H         1 <0>         0.0000
     15 H15        -3.8000  -12.9710  -53.3440 H         1 <0>         0.0000
     16 H16        -2.7290  -13.0810  -52.1160 H         1 <0>         0.0000
     17 H17        -3.9030  -14.2050  -52.2780 H         1 <0>         0.0000
     18 H18        -6.5090  -13.1260  -51.1580 H         1 <0>         0.0000
     19 H19        -6.5010  -11.6480  -51.8520 H         1 <0>         0.0000
     20 H20        -3.4430  -11.5490  -48.8770 H         1 <0>         0.0000
     21 H21        -2.5250  -12.0780  -50.1200 H         1 <0>         0.0000
     22 H22        -2.5830  -14.2900  -49.1310 H         1 <0>         0.0000
     23 H23         2.8940  -12.1220  -48.7700 H         1 <0>         0.0000
     24 H24        -4.3923  -13.8007  -50.1120 H         1 <0>         0.0000
     25 H25         2.3780  -11.7410  -45.4320 H         1 <0>         0.0000
     26 H26        -4.1370  -12.8530  -47.3330 H         1 <0>         0.0000
     27 C1         -6.8570  -14.4100  -55.6420 C.ar      1 <0>         0.0000
     28 C2         -6.7100  -15.1850  -54.4970 C.ar      1 <0>         0.0000
     29 C3         -6.7550  -13.0270  -55.5730 C.ar      1 <0>         0.0000
     30 C4         -6.4670  -14.5730  -53.2810 C.ar      1 <0>         0.0000
     31 C5         -1.2710  -12.7100  -46.6820 C.ar      1 <0>         0.0000
     32 C6         -0.0430  -12.3510  -46.1340 C.ar      1 <0>         0.0000
     33 C7         -6.5020  -12.4160  -54.3540 C.ar      1 <0>         0.0000
     34 C8         -6.3450  -13.1880  -53.2080 C.ar      1 <0>         0.0000
     35 C9         -1.3630  -13.0760  -48.0200 C.ar      1 <0>         0.0000
     36 C10         1.0190  -12.7270  -48.2480 C.ar      1 <0>         0.0000
     37 C11        -0.2010  -13.0860  -48.7970 C.ar      1 <0>         0.0000
     38 C12         1.1030  -12.3570  -46.9210 C.ar      1 <0>         0.0000
     39 C13         2.2400  -13.4960  -50.0930 C.2       1 <0>         0.0000
     40 C14         0.9630  -14.1150  -50.6270 C.3       1 <0>         0.0000
     41 C15        -6.3930  -10.9150  -54.3170 C.3       1 <0>         0.0000
     42 C16        -4.1990  -10.9320  -51.5830 C.3       1 <0>         0.0000
     43 C17        -3.6790  -13.2360  -52.3870 C.3       1 <0>         0.0000
     44 C18        -6.0810  -12.5560  -51.8590 C.3       1 <0>         0.0000
     45 C19        -3.2180  -12.3390  -49.4480 C.3       1 <0>         0.0000
     46 C20        -2.6870  -13.4640  -48.5770 C.3       1 <0>         0.0000
     47 C21        -4.6010  -12.4000  -51.5080 C.3       1 <0>         0.0000
     48 N1          2.1330  -12.7220  -49.0170 N.am      1 <0>         0.0000
     49 N2         -4.4080  -12.8010  -50.1310 N.4       1 <0>         0.0000
     50 O1          3.3130  -13.7080  -50.6370 O.2       1 <0>         0.0000
     51 O2         -0.1890  -13.4310  -50.1220 O.3       1 <0>         0.0000
     52 O3          2.3100  -12.0060  -46.3940 O.3       1 <0>         0.0000
     53 O4         -3.6560  -13.7040  -47.5430 O.3       1 <0>         0.0000
     54 H27        -5.1960  -12.4700  -49.6119 H         1 <0>         0.0000
@<TRIPOS>BOND
     1    1   27 1
     2    2   28 1
     3    3   29 1
     4    4   30 1
     5    5   31 1
     6    6   32 1
     7    7   40 1
     8    8   40 1
     9    9   41 1
    10   10   41 1
    11   11   41 1
    12   12   42 1
    13   13   42 1
    14   14   42 1
    15   15   43 1
    16   16   43 1
    17   17   43 1
    18   18   44 1
    19   19   44 1
    20   20   45 1
    21   21   45 1
    22   22   46 1
    23   23   48 1
    24   24   49 1
    25   25   52 1
    26   26   53 1
    27   27   28 ar
    28   27   29 ar
    29   28   30 ar
    30   29   33 ar
    31   30   34 ar
    32   31   32 ar
    33   31   35 ar
    34   32   38 ar
    35   33   34 ar
    36   33   41 1
    37   34   44 1
    38   35   37 ar
    39   35   46 1
    40   36   37 ar
    41   36   38 ar
    42   36   48 1
    43   37   51 1
    44   38   52 1
    45   39   40 1
    46   39   48 am
    47   39   50 2
    48   40   51 1
    49   42   47 1
    50   43   47 1
    51   44   47 1
    52   45   46 1
    53   45   49 1
    54   46   53 1
    55   47   49 1
    56   49   54 1
