@<TRIPOS>MOLECULE
****
   47    48     0     0     0
SMALL
NO_CHARGES

@<TRIPOS>ATOM
      1 H1         -6.3800  -11.4840  -53.9290 H         1 <0>         0.0000
      2 H2         -6.2140  -15.5930  -53.4680 H         1 <0>         0.0000
      3 H3         -2.1020  -13.1290  -45.8810 H         1 <0>         0.0000
      4 H4         -6.6980  -11.7580  -56.2780 H         1 <0>         0.0000
      5 H5         -6.5290  -15.8680  -55.8180 H         1 <0>         0.0000
      6 H6          0.0250  -12.4200  -45.0500 H         1 <0>         0.0000
      7 H7         -0.5680  -13.1810  -49.7230 H         1 <0>         0.0000
      8 H8         -4.7680  -11.0300  -52.6480 H         1 <0>         0.0000
      9 H9         -5.2650  -10.9180  -51.0970 H         1 <0>         0.0000
     10 H10        -3.6710  -11.0140  -51.4380 H         1 <0>         0.0000
     11 H11        -3.7350  -13.2370  -53.4480 H         1 <0>         0.0000
     12 H12        -2.6790  -13.1300  -52.2080 H         1 <0>         0.0000
     13 H13        -3.6010  -14.4670  -52.3830 H         1 <0>         0.0000
     14 H14        -6.1790  -14.2530  -51.5750 H         1 <0>         0.0000
     15 H15        -6.7300  -12.7180  -51.6590 H         1 <0>         0.0000
     16 H16        -3.1390  -11.8550  -49.4310 H         1 <0>         0.0000
     17 H17        -2.3870  -12.9840  -50.3400 H         1 <0>         0.0000
     18 H18        -2.7640  -14.6090  -48.6630 H         1 <0>         0.0000
     19 H19        -4.4474  -14.2054  -50.1922 H         1 <0>         0.0000
     20 H20        -6.8660  -14.9140  -57.9770 H         1 <0>         0.0000
     21 H21         2.3080  -11.8360  -45.4520 H         1 <0>         0.0000
     22 H22         2.7240  -12.1420  -48.7700 H         1 <0>         0.0000
     23 H23        -4.2720  -12.5540  -47.5690 H         1 <0>         0.0000
     24 C1         -6.4040  -12.4020  -54.3240 C.ar      1 <0>         0.0000
     25 C2         -6.3070  -14.7890  -54.0560 C.ar      1 <0>         0.0000
     26 C3         -1.3390  -12.9900  -46.5120 C.ar      1 <0>         0.0000
     27 C4         -6.5950  -12.5610  -55.6910 C.ar      1 <0>         0.0000
     28 C5         -6.4970  -14.9500  -55.4230 C.ar      1 <0>         0.0000
     29 C6         -0.1000  -12.5810  -46.0290 C.ar      1 <0>         0.0000
     30 C7         -0.4450  -13.0210  -48.7440 C.ar      1 <0>         0.0000
     31 C8         -6.2460  -13.5140  -53.5010 C.ar      1 <0>         0.0000
     32 C9         -1.5120  -13.2050  -47.8740 C.ar      1 <0>         0.0000
     33 C10        -6.6430  -13.8370  -56.2420 C.ar      1 <0>         0.0000
     34 C11         0.9650  -12.3950  -46.9040 C.ar      1 <0>         0.0000
     35 C12         0.7920  -12.6150  -48.2590 C.ar      1 <0>         0.0000
     36 C13        -4.5840  -11.3200  -51.7090 C.3       1 <0>         0.0000
     37 C14        -3.5750  -13.4730  -52.4900 C.3       1 <0>         0.0000
     38 C15        -6.0460  -13.3600  -52.0050 C.3       1 <0>         0.0000
     39 C16        -3.1120  -12.8260  -49.6700 C.3       1 <0>         0.0000
     40 C17        -2.8200  -13.6410  -48.4160 C.3       1 <0>         0.0000
     41 C18        -4.6570  -12.8410  -51.6230 C.3       1 <0>         0.0000
     42 N1         -4.3850  -13.2090  -50.2490 N.4       1 <0>         0.0000
     43 O1         -6.8320  -13.9960  -57.5820 O.3       1 <0>         0.0000
     44 O2          2.1800  -11.9960  -46.4310 O.3       1 <0>         0.0000
     45 O3          1.8330  -12.4340  -49.1180 O.3       1 <0>         0.0000
     46 O4         -3.8720  -13.4640  -47.4600 O.3       1 <0>         0.0000
     47 H24        -5.1014  -12.7975  -49.6857 H         1 <0>         0.0000
@<TRIPOS>BOND
     1    1   24 1
     2    2   25 1
     3    3   26 1
     4    4   27 1
     5    5   28 1
     6    6   29 1
     7    7   30 1
     8    8   36 1
     9    9   36 1
    10   10   36 1
    11   11   37 1
    12   12   37 1
    13   13   37 1
    14   14   38 1
    15   15   38 1
    16   16   39 1
    17   17   39 1
    18   18   40 1
    19   19   42 1
    20   20   43 1
    21   21   44 1
    22   22   45 1
    23   23   46 1
    24   24   27 ar
    25   24   31 ar
    26   25   28 ar
    27   25   31 ar
    28   26   29 ar
    29   26   32 ar
    30   27   33 ar
    31   28   33 ar
    32   29   34 ar
    33   30   32 ar
    34   30   35 ar
    35   31   38 1
    36   32   40 1
    37   33   43 1
    38   34   35 ar
    39   34   44 1
    40   35   45 1
    41   36   41 1
    42   37   41 1
    43   38   41 1
    44   39   40 1
    45   39   42 1
    46   40   46 1
    47   41   42 1
    48   42   47 1
