@<TRIPOS>MOLECULE
****
   27    27     0     0     0
SMALL
NO_CHARGES

@<TRIPOS>ATOM
      1 H1         -2.4110  -11.9940  -46.5350 H         1 <0>         0.0000
      2 H2         -0.3350  -11.2520  -45.6010 H         1 <0>         0.0000
      3 H3         -0.4410  -13.2940  -49.9420 H         1 <0>         0.0000
      4 H4         -5.7000  -12.0760  -52.1270 H         1 <0>         0.0000
      5 H5         -4.9290  -10.8400  -51.3880 H         1 <0>         0.0000
      6 H6         -4.1150  -11.8100  -52.4190 H         1 <0>         0.0000
      7 H7         -3.3070  -11.2900  -49.6820 H         1 <0>         0.0000
      8 H8         -2.4930  -12.2560  -50.7170 H         1 <0>         0.0000
      9 H9         -2.6950  -14.0690  -49.1920 H         1 <0>         0.0000
     10 H10        -5.1982  -12.6315  -49.9151 H         1 <0>         0.0000
     11 H11         2.1070  -11.0170  -45.8760 H         1 <0>         0.0000
     12 H12         2.8110  -12.2350  -48.7130 H         1 <0>         0.0000
     13 H13        -4.2930  -12.2330  -47.8660 H         1 <0>         0.0000
     14 C1         -1.5630  -12.1100  -47.0520 C.ar      1 <0>         0.0000
     15 C2         -0.3580  -11.6770  -46.5060 C.ar      1 <0>         0.0000
     16 C3         -0.4210  -12.8680  -49.0380 C.ar      1 <0>         0.0000
     17 C4         -1.5970  -12.7030  -48.3120 C.ar      1 <0>         0.0000
     18 C5          0.8120  -11.8440  -47.2370 C.ar      1 <0>         0.0000
     19 C6          0.7810  -12.4340  -48.4920 C.ar      1 <0>         0.0000
     20 C7         -4.8340  -11.7770  -51.7250 C.3       1 <0>         0.0000
     21 C8         -3.2070  -12.2270  -50.0170 C.3       1 <0>         0.0000
     22 C9         -2.8050  -13.1350  -48.8530 C.3       1 <0>         0.0000
     23 N1         -4.4790  -12.6650  -50.6090 N.4       1 <0>         0.0000
     24 O1          2.0290  -11.4480  -46.7750 O.3       1 <0>         0.0000
     25 O2          1.9690  -12.5610  -49.1420 O.3       1 <0>         0.0000
     26 O3         -3.8290  -13.1190  -47.8540 O.3       1 <0>         0.0000
     27 H14        -4.3843  -13.6017  -50.9460 H         1 <0>         0.0000
@<TRIPOS>BOND
     1    1   14 1
     2    2   15 1
     3    3   16 1
     4    4   20 1
     5    5   20 1
     6    6   20 1
     7    7   21 1
     8    8   21 1
     9    9   22 1
    10   10   23 1
    11   11   24 1
    12   12   25 1
    13   13   26 1
    14   14   15 ar
    15   14   17 ar
    16   15   18 ar
    17   16   17 ar
    18   16   19 ar
    19   17   22 1
    20   18   19 ar
    21   18   24 1
    22   19   25 1
    23   20   23 1
    24   21   22 1
    25   21   23 1
    26   22   26 1
    27   23   27 1
