@<TRIPOS>MOLECULE
****
   69    72     0     0     0
SMALL
NO_CHARGES

@<TRIPOS>ATOM
      1 H1         12.0810   -5.8420  -31.5370 H         1 <0>         0.0000
      2 H2         11.8420   -6.9700  -30.2440 H         1 <0>         0.0000
      3 H3          4.2220   -1.7900  -33.5500 H         1 <0>         0.0000
      4 H4          5.4760   -1.7170  -34.7420 H         1 <0>         0.0000
      5 H5         15.2560   -5.1910  -33.4420 H         1 <0>         0.0000
      6 H6         13.8630   -4.4130  -30.9590 H         1 <0>         0.0000
      7 H7         14.4410   -8.1670  -33.8150 H         1 <0>         0.0000
      8 H8         15.8380   -7.3250  -33.7480 H         1 <0>         0.0000
      9 H9          7.9300   -1.3090  -33.4740 H         1 <0>         0.0000
     10 H10         7.3830    0.1400  -33.9910 H         1 <0>         0.0000
     11 H11        14.9930   -2.2200  -33.9430 H         1 <0>         0.0000
     12 H12        14.1670   -3.5430  -34.4280 H         1 <0>         0.0000
     13 H13        12.3230   -2.3970  -34.8800 H         1 <0>         0.0000
     14 H14        13.4420   -1.2540  -35.2100 H         1 <0>         0.0000
     15 H15        12.6610   -3.1320  -29.9590 H         1 <0>         0.0000
     16 H16        13.8540   -2.0830  -29.5830 H         1 <0>         0.0000
     17 H17        12.3550   -0.4990  -29.0870 H         1 <0>         0.0000
     18 H18        11.1660   -1.5920  -29.3300 H         1 <0>         0.0000
     19 H19        11.4590   -0.5120  -33.9680 H         1 <0>         0.0000
     20 H20        12.9020   -0.0350  -33.3720 H         1 <0>         0.0000
     21 H21        15.0630  -10.1130  -30.8000 H         1 <0>         0.0000
     22 H22        13.9090   -9.7720  -31.9040 H         1 <0>         0.0000
     23 H23        14.7900   -8.0090  -29.7990 H         1 <0>         0.0000
     24 H24        13.9070   -1.1960  -31.6480 H         1 <0>         0.0000
     25 H25        12.2400    0.3030  -31.1360 H         1 <0>         0.0000
     26 H26        16.0940   -9.5550  -32.8460 H         1 <0>         0.0000
     27 H27         8.0360    1.0800  -32.0690 H         1 <0>         0.0000
     28 H28        10.6600   -2.9470  -31.4940 H         1 <0>         0.0000
     29 H29        10.0710   -2.1440  -32.7880 H         1 <0>         0.0000
     30 H30        11.2590   -3.2470  -32.9830 H         1 <0>         0.0000
     31 H31        11.0550    2.1110  -31.2820 H         1 <0>         0.0000
     32 H32        10.3430    1.4900  -32.6140 H         1 <0>         0.0000
     33 H33         9.4270    2.1170  -31.4160 H         1 <0>         0.0000
     34 H34         9.3440   -1.2410  -32.1270 H         1 <0>         0.0000
     35 H35         8.7280   -1.1820  -30.6160 H         1 <0>         0.0000
     36 H36        10.0530    0.4150  -29.9800 H         1 <0>         0.0000
     37 H37        12.1550   -8.8150  -30.1660 H         1 <0>         0.0000
     38 H38        17.1720   -7.4860  -31.9700 H         1 <0>         0.0000
     39 C1         13.5830   -7.1610  -31.2490 C.2       1 <0>         0.0000
     40 C2         14.4350   -6.6910  -32.3580 C.2       1 <0>         0.0000
     41 C3          5.9500   -0.9460  -32.9390 C.2       1 <0>         0.0000
     42 C4          5.6290   -0.6490  -31.6920 C.2       1 <0>         0.0000
     43 C5         13.8360   -3.0550  -32.4450 C.2       1 <0>         0.0000
     44 C6         12.4060   -6.6130  -30.9890 C.2       1 <0>         0.0000
     45 C7          5.1510   -1.5320  -33.8150 C.2       1 <0>         0.0000
     46 C8         14.6610   -5.3940  -32.6640 C.2       1 <0>         0.0000
     47 C9         14.0860   -4.2680  -31.9230 C.2       1 <0>         0.0000
     48 C10        15.1120   -7.7470  -33.2050 C.3       1 <0>         0.0000
     49 C11         7.3590   -0.5220  -33.2420 C.3       1 <0>         0.0000
     50 C12        14.1170   -2.7000  -33.8920 C.3       1 <0>         0.0000
     51 C13        13.0210   -1.7990  -34.4850 C.3       1 <0>         0.0000
     52 C14        13.0140   -2.2090  -30.1110 C.3       1 <0>         0.0000
     53 C15        11.9690   -1.1550  -29.7360 C.3       1 <0>         0.0000
     54 C16        12.3030   -0.8200  -33.5300 C.3       1 <0>         0.0000
     55 C17        14.6510   -9.3890  -31.3540 C.3       1 <0>         0.0000
     56 C18        14.0760   -8.3240  -30.4240 C.3       1 <0>         0.0000
     57 C19        13.2600   -1.9570  -31.5970 C.3       1 <0>         0.0000
     58 C20        11.5850   -0.4470  -31.0440 C.3       1 <0>         0.0000
     59 C21        15.7130   -8.8180  -32.2880 C.3       1 <0>         0.0000
     60 C22         7.8080    0.1170  -31.9250 C.3       1 <0>         0.0000
     61 C23        11.9480   -1.4410  -32.1750 C.3       1 <0>         0.0000
     62 C24        10.8920   -2.5410  -32.3780 C.3       1 <0>         0.0000
     63 C25        10.2620    1.6070  -31.6240 C.3       1 <0>         0.0000
     64 C26         9.0210   -0.6350  -31.4000 C.3       1 <0>         0.0000
     65 C27        10.2020    0.2350  -30.9520 C.3       1 <0>         0.0000
     66 O1          4.5450   -0.8710  -31.1670 O.2       1 <0>         0.0000
     67 O2          6.7270    0.0000  -30.9920 O.3       1 <0>         0.0000
     68 O3         13.0180   -8.9250  -29.6730 O.3       1 <0>         0.0000
     69 O4         16.7500   -8.2490  -31.4810 O.3       1 <0>         0.0000
@<TRIPOS>BOND
     1    1   44 1
     2    2   44 1
     3    3   45 1
     4    4   45 1
     5    5   46 1
     6    6   47 1
     7    7   48 1
     8    8   48 1
     9    9   49 1
    10   10   49 1
    11   11   50 1
    12   12   50 1
    13   13   51 1
    14   14   51 1
    15   15   52 1
    16   16   52 1
    17   17   53 1
    18   18   53 1
    19   19   54 1
    20   20   54 1
    21   21   55 1
    22   22   55 1
    23   23   56 1
    24   24   57 1
    25   25   58 1
    26   26   59 1
    27   27   60 1
    28   28   62 1
    29   29   62 1
    30   30   62 1
    31   31   63 1
    32   32   63 1
    33   33   63 1
    34   34   64 1
    35   35   64 1
    36   36   65 1
    37   37   68 1
    38   38   69 1
    39   39   40 1
    40   39   44 2
    41   39   56 1
    42   40   46 2
    43   40   48 1
    44   41   42 1
    45   41   45 2
    46   41   49 1
    47   42   66 2
    48   42   67 1
    49   43   47 2
    50   43   50 1
    51   43   57 1
    52   46   47 1
    53   48   59 1
    54   49   60 1
    55   50   51 1
    56   51   54 1
    57   52   53 1
    58   52   57 1
    59   53   58 1
    60   54   61 1
    61   55   56 1
    62   55   59 1
    63   56   68 1
    64   57   61 1
    65   58   61 1
    66   58   65 1
    67   59   69 1
    68   60   64 1
    69   60   67 1
    70   61   62 1
    71   63   65 1
    72   64   65 1
