@<TRIPOS>MOLECULE
****
   69    72     0     0     0
SMALL
NO_CHARGES

@<TRIPOS>ATOM
      1 H1         12.0300   -6.1580  -31.9250 H         1 <0>         0.0000
      2 H2         11.8000   -7.2520  -30.6020 H         1 <0>         0.0000
      3 H3          4.3760   -2.3980  -34.4460 H         1 <0>         0.0000
      4 H4          5.6540   -1.8770  -35.4920 H         1 <0>         0.0000
      5 H5         15.3400   -5.2850  -33.5700 H         1 <0>         0.0000
      6 H6         13.8940   -4.5250  -31.1220 H         1 <0>         0.0000
      7 H7         14.5760   -8.3100  -33.9490 H         1 <0>         0.0000
      8 H8         15.9520   -7.4340  -33.8730 H         1 <0>         0.0000
      9 H9          8.0190   -1.5980  -33.9040 H         1 <0>         0.0000
     10 H10         7.3260   -0.1550  -34.2260 H         1 <0>         0.0000
     11 H11        14.8500   -2.2320  -34.1290 H         1 <0>         0.0000
     12 H12        14.1770   -3.6430  -34.6010 H         1 <0>         0.0000
     13 H13        12.1940   -2.7120  -35.0270 H         1 <0>         0.0000
     14 H14        13.1850   -1.4750  -35.4180 H         1 <0>         0.0000
     15 H15        12.7500   -3.2490  -30.0760 H         1 <0>         0.0000
     16 H16        13.8540   -2.0790  -29.7910 H         1 <0>         0.0000
     17 H17        12.2380   -0.6150  -29.3150 H         1 <0>         0.0000
     18 H18        11.1480   -1.8230  -29.4530 H         1 <0>         0.0000
     19 H19        11.1640   -0.9000  -34.1360 H         1 <0>         0.0000
     20 H20        12.5670   -0.2560  -33.6030 H         1 <0>         0.0000
     21 H21        15.2520  -10.1230  -30.8050 H         1 <0>         0.0000
     22 H22        14.0820   -9.9250  -31.9270 H         1 <0>         0.0000
     23 H23        14.8610   -7.9730  -29.9520 H         1 <0>         0.0000
     24 H24        13.7560   -1.2880  -31.8930 H         1 <0>         0.0000
     25 H25        11.9340    0.0940  -31.3770 H         1 <0>         0.0000
     26 H26        16.2000   -9.6630  -32.9390 H         1 <0>         0.0000
     27 H27         7.6500    0.4980  -32.1050 H         1 <0>         0.0000
     28 H28        10.7010   -3.3290  -31.5670 H         1 <0>         0.0000
     29 H29         9.9910   -2.6320  -32.8610 H         1 <0>         0.0000
     30 H30        11.2800   -3.6120  -33.0670 H         1 <0>         0.0000
     31 H31        10.5490    1.7770  -31.2090 H         1 <0>         0.0000
     32 H32         9.9110    1.2210  -32.6050 H         1 <0>         0.0000
     33 H33         8.9320    1.6050  -31.3550 H         1 <0>         0.0000
     34 H34         9.2520   -1.6660  -32.3970 H         1 <0>         0.0000
     35 H35         8.5890   -1.7830  -30.9100 H         1 <0>         0.0000
     36 H36         9.7540   -0.1530  -30.1020 H         1 <0>         0.0000
     37 H37        12.4300   -9.3470  -30.3420 H         1 <0>         0.0000
     38 H38        17.3150   -7.5710  -32.1770 H         1 <0>         0.0000
     39 C1         13.6240   -7.3020  -31.4590 C.2       1 <0>         0.0000
     40 C2         14.5080   -6.8060  -32.5240 C.2       1 <0>         0.0000
     41 C3          5.9680   -1.5750  -33.5240 C.2       1 <0>         0.0000
     42 C4          5.5630   -1.6510  -32.2680 C.2       1 <0>         0.0000
     43 C5         13.7990   -3.1810  -32.6180 C.2       1 <0>         0.0000
     44 C6         12.3840   -6.8690  -31.3170 C.2       1 <0>         0.0000
     45 C7          5.2770   -1.9830  -34.5720 C.2       1 <0>         0.0000
     46 C8         14.7220   -5.5010  -32.8140 C.2       1 <0>         0.0000
     47 C9         14.1050   -4.3830  -32.0890 C.2       1 <0>         0.0000
     48 C10        15.2260   -7.8630  -33.3350 C.3       1 <0>         0.0000
     49 C11         7.3290   -0.9390  -33.6050 C.3       1 <0>         0.0000
     50 C12        14.0340   -2.8070  -34.0710 C.3       1 <0>         0.0000
     51 C13        12.8370   -2.0360  -34.6670 C.3       1 <0>         0.0000
     52 C14        13.0110   -2.3050  -30.2800 C.3       1 <0>         0.0000
     53 C15        11.8880   -1.3340  -29.9150 C.3       1 <0>         0.0000
     54 C16        12.0490   -1.1040  -33.7180 C.3       1 <0>         0.0000
     55 C17        14.8020   -9.4640  -31.4080 C.3       1 <0>         0.0000
     56 C18        14.1650   -8.3700  -30.5500 C.3       1 <0>         0.0000
     57 C19        13.1760   -2.0950  -31.7830 C.3       1 <0>         0.0000
     58 C20        11.3770   -0.7230  -31.2290 C.3       1 <0>         0.0000
     59 C21        15.8390   -8.9080  -32.3920 C.3       1 <0>         0.0000
     60 C22         7.5740   -0.4980  -32.1570 C.3       1 <0>         0.0000
     61 C23        11.8040   -1.7170  -32.3330 C.3       1 <0>         0.0000
     62 C24        10.8610   -2.9290  -32.4690 C.3       1 <0>         0.0000
     63 C25         9.8200    1.2220  -31.6090 C.3       1 <0>         0.0000
     64 C26         8.8470   -1.1520  -31.6410 C.3       1 <0>         0.0000
     65 C27         9.9250   -0.2110  -31.0860 C.3       1 <0>         0.0000
     66 O1          4.5650   -2.2370  -31.8770 O.2       1 <0>         0.0000
     67 O2          6.4660   -0.9540  -31.3710 O.3       1 <0>         0.0000
     68 O3         13.1250   -8.9410  -29.7480 O.3       1 <0>         0.0000
     69 O4         16.9160   -8.3200  -31.6490 O.3       1 <0>         0.0000
@<TRIPOS>BOND
     1    1   44 1
     2    2   44 1
     3    3   45 1
     4    4   45 1
     5    5   46 1
     6    6   47 1
     7    7   48 1
     8    8   48 1
     9    9   49 1
    10   10   49 1
    11   11   50 1
    12   12   50 1
    13   13   51 1
    14   14   51 1
    15   15   52 1
    16   16   52 1
    17   17   53 1
    18   18   53 1
    19   19   54 1
    20   20   54 1
    21   21   55 1
    22   22   55 1
    23   23   56 1
    24   24   57 1
    25   25   58 1
    26   26   59 1
    27   27   60 1
    28   28   62 1
    29   29   62 1
    30   30   62 1
    31   31   63 1
    32   32   63 1
    33   33   63 1
    34   34   64 1
    35   35   64 1
    36   36   65 1
    37   37   68 1
    38   38   69 1
    39   39   40 1
    40   39   44 2
    41   39   56 1
    42   40   46 2
    43   40   48 1
    44   41   42 1
    45   41   45 2
    46   41   49 1
    47   42   66 2
    48   42   67 1
    49   43   47 2
    50   43   50 1
    51   43   57 1
    52   46   47 1
    53   48   59 1
    54   49   60 1
    55   50   51 1
    56   51   54 1
    57   52   53 1
    58   52   57 1
    59   53   58 1
    60   54   61 1
    61   55   56 1
    62   55   59 1
    63   56   68 1
    64   57   61 1
    65   58   61 1
    66   58   65 1
    67   59   69 1
    68   60   64 1
    69   60   67 1
    70   61   62 1
    71   63   65 1
    72   64   65 1
