@<TRIPOS>MOLECULE
****
   45    47     0     0     0
SMALL
NO_CHARGES

@<TRIPOS>ATOM
      1 H1         39.8780   13.1000   18.3540 H         1 <0>         0.0000
      2 H2         39.0030   11.6790   16.6480 H         1 <0>         0.0000
      3 H3         39.6610   15.4520   18.1180 H         1 <0>         0.0000
      4 H4         37.9360   12.6160   14.7600 H         1 <0>         0.0000
      5 H5         36.9170   16.8820   13.3450 H         1 <0>         0.0000
      6 H6         38.0931   18.7245   18.8422 H         1 <0>         0.0000
      7 H7         38.8857   17.1479   19.1626 H         1 <0>         0.0000
      8 H8         38.0920   19.6670   16.9470 H         1 <0>         0.0000
      9 H9         39.4810   19.5220   16.1000 H         1 <0>         0.0000
     10 H10        39.9470   17.6880   17.2490 H         1 <0>         0.0000
     11 H11        39.9540   24.8380   12.7340 H         1 <0>         0.0000
     12 H12        38.8220   25.4810   13.7190 H         1 <0>         0.0000
     13 H13        39.8060   24.2990   14.2680 H         1 <0>         0.0000
     14 H14        37.7690   21.1550   15.3220 H         1 <0>         0.0000
     15 H15        38.6530   20.9600   13.9630 H         1 <0>         0.0000
     16 H16        38.8420   22.7950   12.7570 H         1 <0>         0.0000
     17 H17        37.8580   23.9780   12.2080 H         1 <0>         0.0000
     18 H18        36.8850   21.6240   12.6470 H         1 <0>         0.0000
     19 H19        35.8730   21.6250   13.9290 H         1 <0>         0.0000
     20 H20        36.4800   23.7990   13.9250 H         1 <0>         0.0000
     21 H21        37.6290   23.1880   14.9110 H         1 <0>         0.0000
     22 H22        36.5540   14.6720   12.4920 H         1 <0>         0.0000
     23 C1         39.4220   13.4890   17.5540 C.ar      1 <0>         0.0000
     24 C2         38.9160   12.6720   16.5670 C.ar      1 <0>         0.0000
     25 C3         39.2870   14.8460   17.4160 C.ar      1 <0>         0.0000
     26 C4         38.2950   13.2150   15.4760 C.ar      1 <0>         0.0000
     27 C5         37.3790   16.4790   14.1350 C.ar      1 <0>         0.0000
     28 C6         38.6530   15.3780   16.3410 C.ar      1 <0>         0.0000
     29 C7         38.1620   14.5620   15.3580 C.ar      1 <0>         0.0000
     30 C8         38.4960   16.7330   16.2020 C.ar      1 <0>         0.0000
     31 C9         37.8860   17.2750   15.1410 C.ar      1 <0>         0.0000
     32 C10        37.5270   15.1000   14.2480 C.ar      1 <0>         0.0000
     33 C11        38.2620   17.7100   18.4520 C.3       1 <0>         0.0000
     34 C12        37.3600   19.4230   14.3240 C.2       1 <0>         0.0000
     35 C13        38.6390   19.0570   16.3740 C.3       1 <0>         0.0000
     36 C14        38.9590   17.7680   17.1190 C.3       1 <0>         0.0000
     37 C15        39.3080   24.6430   13.4720 C.3       1 <0>         0.0000
     38 C16        37.7420   20.8670   14.3650 C.3       1 <0>         0.0000
     39 C17        38.3220   23.6100   13.0140 C.3       1 <0>         0.0000
     40 C18        36.8160   21.7760   13.6330 C.3       1 <0>         0.0000
     41 C19        37.2600   23.1760   13.9820 C.3       1 <0>         0.0000
     42 N1         37.8940   18.6490   15.2230 N.am      1 <0>         0.0000
     43 O1         36.6460   19.0480   13.4450 O.2       1 <0>         0.0000
     44 O2         37.0270   14.2820   13.2820 O.3       1 <0>         0.0000
     45 H23        37.2937   17.2020   18.3325 H         1 <0>         0.0000
@<TRIPOS>BOND
     1    1   23 1
     2    2   24 1
     3    3   25 1
     4    4   26 1
     5    5   27 1
     6    6   33 1
     7    7   33 1
     8    8   35 1
     9    9   35 1
    10   10   36 1
    11   11   37 1
    12   12   37 1
    13   13   37 1
    14   14   38 1
    15   15   38 1
    16   16   39 1
    17   17   39 1
    18   18   40 1
    19   19   40 1
    20   20   41 1
    21   21   41 1
    22   22   44 1
    23   23   24 ar
    24   23   25 ar
    25   24   26 ar
    26   25   28 ar
    27   26   29 ar
    28   27   31 ar
    29   27   32 ar
    30   28   29 ar
    31   28   30 ar
    32   29   32 ar
    33   30   31 ar
    34   30   36 1
    35   31   42 1
    36   32   44 1
    37   33   36 1
    38   34   38 1
    39   34   42 am
    40   34   43 2
    41   35   36 1
    42   35   42 1
    43   37   39 1
    44   38   40 1
    45   39   41 1
    46   40   41 1
    47   33   45 1
