@<TRIPOS>MOLECULE
****
   56    59     0     0     0
SMALL
NO_CHARGES

@<TRIPOS>ATOM
      1 H1         32.3370  -18.6330   11.3830 H         1 <0>         0.0000
      2 H2         29.8970  -15.3670   14.1370 H         1 <0>         0.0000
      3 H3         41.1380  -13.9030   16.5370 H         1 <0>         0.0000
      4 H4         40.9990  -15.0260   17.7140 H         1 <0>         0.0000
      5 H5         40.7610  -15.5240   14.8740 H         1 <0>         0.0000
      6 H6         41.9560  -16.0750   15.8410 H         1 <0>         0.0000
      7 H7         38.9940  -13.9200   17.7140 H         1 <0>         0.0000
      8 H8         38.8950  -13.9590   16.0840 H         1 <0>         0.0000
      9 H9         40.3940  -17.8440   15.4610 H         1 <0>         0.0000
     10 H10        40.2940  -17.4070   17.0310 H         1 <0>         0.0000
     11 H11        38.5000  -16.2140   17.8540 H         1 <0>         0.0000
     12 H12        37.3740  -15.5520   16.8730 H         1 <0>         0.0000
     13 H13        34.2110  -19.1090   11.9500 H         1 <0>         0.0000
     14 H14        35.5520  -18.2890   12.3920 H         1 <0>         0.0000
     15 H15        34.9780  -19.4880   13.3410 H         1 <0>         0.0000
     16 H16        30.8610  -19.2730    9.6820 H         1 <0>         0.0000
     17 H17        29.3000  -19.7460    9.5970 H         1 <0>         0.0000
     18 H18        29.8390  -18.5340    8.6440 H         1 <0>         0.0000
     19 H19        26.9820  -17.7180    9.4510 H         1 <0>         0.0000
     20 H20        26.2740  -17.3450   10.8750 H         1 <0>         0.0000
     21 H21        26.8450  -16.1570    9.9110 H         1 <0>         0.0000
     22 H22        35.8270  -17.2180   16.1770 H         1 <0>         0.0000
     23 H23        36.0790  -18.2460   14.9340 H         1 <0>         0.0000
     24 H24        36.6700  -15.4240   14.9940 H         1 <0>         0.0000
     25 H25        36.5600  -16.2200   13.5720 H         1 <0>         0.0000
     26 C1         33.8620  -17.7350   13.4750 C.3       1 <0>         0.0000
     27 C2         34.4030  -17.0460   14.6730 C.3       1 <0>         0.0000
     28 C3         29.5590  -17.9640   10.6110 C.3       1 <0>         0.0000
     29 C4         28.3330  -17.1770   10.9180 C.3       1 <0>         0.0000
     30 C5         31.8510  -17.9710   11.9530 C.ar      1 <0>         0.0000
     31 C6         30.3930  -16.0350   13.5810 C.ar      1 <0>         0.0000
     32 C7         32.4630  -17.3990   13.0640 C.ar      1 <0>         0.0000
     33 C8         30.5520  -17.5980   11.6590 C.ar      1 <0>         0.0000
     34 C9         33.5360  -16.0740   15.4040 C.2       1 <0>         0.0000
     35 C10        31.6990  -16.4000   13.8920 C.ar      1 <0>         0.0000
     36 C11        29.8050  -16.6230   12.4830 C.ar      1 <0>         0.0000
     37 C12        38.1760  -16.8240   14.7230 C.2       1 <0>         0.0000
     38 C13        40.6690  -14.7420   16.8140 C.3       1 <0>         0.0000
     39 C14        40.9830  -15.8510   15.7930 C.3       1 <0>         0.0000
     40 C15        39.1740  -14.4690   16.8980 C.3       1 <0>         0.0000
     41 C16        40.1690  -17.0980   16.0880 C.3       1 <0>         0.0000
     42 C17        38.3480  -15.7540   16.9790 C.3       1 <0>         0.0000
     43 C18        34.7250  -18.7420   12.7250 C.3       1 <0>         0.0000
     44 C19        29.9200  -18.9630    9.5440 C.3       1 <0>         0.0000
     45 C20        26.9960  -17.0920   10.2310 C.3       1 <0>         0.0000
     46 C21        35.8060  -17.3170   15.1820 C.3       1 <0>         0.0000
     47 C22        36.7660  -16.3130   14.5460 C.3       1 <0>         0.0000
     48 N1         38.8280  -16.5930   15.8620 N.am      1 <0>         0.0000
     49 O1         33.9620  -15.4870   16.4140 O.2       1 <0>         0.0000
     50 O2         38.6770  -17.4190   13.7850 O.2       1 <0>         0.0000
     51 O3         28.5840  -16.3960   12.0290 O.3       1 <0>         0.0000
     52 O4         32.2610  -15.8060   14.9790 O.3       1 <0>         0.0000
     53 H26        33.8620  -17.7350   13.4750 H         1 <0>         0.0000
     54 H27        34.4030  -17.0460   14.6730 H         1 <0>         0.0000
     55 H28        29.5590  -17.9640   10.6110 H         1 <0>         0.0000
     56 H29        28.3330  -17.1770   10.9180 H         1 <0>         0.0000
@<TRIPOS>BOND
     1    1   30 1
     2    2   31 1
     3    3   38 1
     4    4   38 1
     5    5   39 1
     6    6   39 1
     7    7   40 1
     8    8   40 1
     9    9   41 1
    10   10   41 1
    11   11   42 1
    12   12   42 1
    13   13   43 1
    14   14   43 1
    15   15   43 1
    16   16   44 1
    17   17   44 1
    18   18   44 1
    19   19   45 1
    20   20   45 1
    21   21   45 1
    22   22   46 1
    23   23   46 1
    24   24   47 1
    25   25   47 1
    26   26   27 1
    27   26   32 1
    28   26   43 1
    29   27   34 1
    30   27   46 1
    31   28   29 1
    32   28   33 1
    33   28   44 1
    34   29   45 1
    35   29   51 1
    36   30   32 ar
    37   30   33 ar
    38   31   35 ar
    39   31   36 ar
    40   32   35 ar
    41   33   36 ar
    42   34   49 2
    43   34   52 1
    44   35   52 1
    45   36   51 1
    46   37   47 1
    47   37   48 am
    48   37   50 2
    49   38   39 1
    50   38   40 1
    51   39   41 1
    52   40   42 1
    53   41   48 1
    54   42   48 1
    55   46   47 1
    56   26   53 1
    57   27   54 1
    58   28   55 1
    59   29   56 1
