@<TRIPOS>MOLECULE
****
   42    44     0     0     0
SMALL
NO_CHARGES

@<TRIPOS>ATOM
      1 H1         43.0470  -12.7310   14.6020 H         1 <0>         0.0000
      2 H2         41.2700  -11.9330   15.9880 H         1 <0>         0.0000
      3 H3         43.4610  -15.0820   14.4140 H         1 <0>         0.0000
      4 H4         36.6230  -18.3540   13.7800 H         1 <0>         0.0000
      5 H5         39.8870  -13.4640   17.2020 H         1 <0>         0.0000
      6 H6         42.0850  -16.6160   15.6260 H         1 <0>         0.0000
      7 H7         34.2390  -18.3330   13.5010 H         1 <0>         0.0000
      8 H8         33.8010  -15.8250   16.7850 H         1 <0>         0.0000
      9 H9         38.5880  -18.2970   14.1280 H         1 <0>         0.0000
     10 H10        39.7330  -17.1730   14.4310 H         1 <0>         0.0000
     11 H11        39.5880  -18.4740   15.4070 H         1 <0>         0.0000
     12 H12        32.8910  -14.3970   15.1110 H         1 <0>         0.0000
     13 H13        31.3760  -13.8770   14.7920 H         1 <0>         0.0000
     14 H14        31.6600  -14.8080   16.1030 H         1 <0>         0.0000
     15 H15        40.0810  -15.9120   18.2230 H         1 <0>         0.0000
     16 H16        40.4400  -17.0610   17.1190 H         1 <0>         0.0000
     17 C1         42.4760  -13.3820   15.1030 C.ar      1 <0>         0.0000
     18 C2         41.4350  -12.9170   15.9140 C.ar      1 <0>         0.0000
     19 C3         42.7180  -14.7450   14.9920 C.ar      1 <0>         0.0000
     20 C4         36.0530  -17.8210   14.4060 C.ar      1 <0>         0.0000
     21 C5         40.6260  -13.8010   16.6190 C.ar      1 <0>         0.0000
     22 C6         41.9140  -15.6330   15.6940 C.ar      1 <0>         0.0000
     23 C7         34.6590  -17.8050   14.2390 C.ar      1 <0>         0.0000
     24 C8         34.3990  -16.3320   16.1650 C.ar      1 <0>         0.0000
     25 C9         36.6500  -17.0930   15.4470 C.ar      1 <0>         0.0000
     26 C10        40.8690  -15.1650   16.4940 C.ar      1 <0>         0.0000
     27 C11        35.7680  -16.3160   16.3680 C.ar      1 <0>         0.0000
     28 C12        33.8490  -17.0450   15.1100 C.ar      1 <0>         0.0000
     29 C13        38.1100  -17.0520   15.7170 C.3       1 <0>         0.0000
     30 C14        38.5850  -16.2400   16.8700 C.3       1 <0>         0.0000
     31 C15        37.5820  -15.5040   17.7040 C.2       1 <0>         0.0000
     32 C16        39.0880  -17.8140   14.8470 C.3       1 <0>         0.0000
     33 C17        31.9200  -14.6340   15.1530 C.3       1 <0>         0.0000
     34 C18        40.0360  -16.1560   17.2540 C.3       1 <0>         0.0000
     35 O1         37.9150  -14.8230   18.6910 O.2       1 <0>         0.0000
     36 O2         30.2690  -16.4470   14.2230 O.2       1 <0>         0.0000
     37 O3         32.1120  -15.9320   12.8620 O.2       1 <0>         0.0000
     38 O4         36.2660  -15.5960   17.4120 O.3       1 <0>         0.0000
     39 O5         32.4800  -17.0390   14.9930 O.3       1 <0>         0.0000
     40 S1         31.6440  -15.9910   14.2490 S.o2      1 <0>         0.0000
     41 H17        38.2073  -16.1756   15.0593 H         1 <0>         0.0000
     42 H18        38.6983  -15.3625   16.2165 H         1 <0>         0.0000
@<TRIPOS>BOND
     1    1   17 1
     2    2   18 1
     3    3   19 1
     4    4   20 1
     5    5   21 1
     6    6   22 1
     7    7   23 1
     8    8   24 1
     9    9   32 1
    10   10   32 1
    11   11   32 1
    12   12   33 1
    13   13   33 1
    14   14   33 1
    15   15   34 1
    16   16   34 1
    17   17   18 ar
    18   17   19 ar
    19   18   21 ar
    20   19   22 ar
    21   20   23 ar
    22   20   25 ar
    23   21   26 ar
    24   22   26 ar
    25   23   28 ar
    26   24   27 ar
    27   24   28 ar
    28   25   27 ar
    29   25   29 1
    30   26   34 1
    31   27   38 1
    32   28   39 1
    33   29   30 1
    34   29   32 1
    35   30   31 1
    36   30   34 1
    37   31   35 2
    38   31   38 1
    39   33   40 1
    40   36   40 2
    41   37   40 2
    42   39   40 1
    43   29   41 1
    44   30   42 1
