@<TRIPOS>MOLECULE
****
   39    41     0     0     0
SMALL
NO_CHARGES

@<TRIPOS>ATOM
      1 H1          4.7960    4.4100   -8.0980 H         1 <0>         0.0000
      2 H2          6.7100    4.4460   -4.3790 H         1 <0>         0.0000
      3 H3          6.8760    3.7540   -9.1570 H         1 <0>         0.0000
      4 H4          8.7960    3.8320   -5.4360 H         1 <0>         0.0000
      5 H5          2.0240    2.3670   -7.5350 H         1 <0>         0.0000
      6 H6          0.4310    3.8250   -6.8260 H         1 <0>         0.0000
      7 H7          1.6300    4.7560   -7.4270 H         1 <0>         0.0000
      8 H8          2.1960    4.5370   -3.4170 H         1 <0>         0.0000
      9 H9          1.5770    3.1950   -4.1120 H         1 <0>         0.0000
     10 H10         1.8380    6.8190   -6.0370 H         1 <0>         0.0000
     11 H11         2.6120    6.4720   -4.6420 H         1 <0>         0.0000
     12 H12         4.5340    5.4650   -4.6500 H         1 <0>         0.0000
     13 H13         4.0570    3.2300   -4.0950 H         1 <0>         0.0000
     14 H14         4.7910    1.3870   -5.3910 H         1 <0>         0.0000
     15 H15         3.5090    0.6190   -6.0490 H         1 <0>         0.0000
     16 H16         4.5410    1.4500   -7.0030 H         1 <0>         0.0000
     17 H17         0.0640    5.6560   -3.9900 H         1 <0>         0.0000
     18 H18        -0.2610    6.0700   -5.5360 H         1 <0>         0.0000
     19 H19         9.1830    3.2630   -8.9690 H         1 <0>         0.0000
     20 H20        -0.5260    3.4750   -4.4500 H         1 <0>         0.0000
     21 C1          5.6220    4.2760   -7.5510 C.ar      1 <0>         0.0000
     22 C2          6.7490    4.3020   -5.3680 C.ar      1 <0>         0.0000
     23 C3          6.8360    3.9030   -8.1690 C.ar      1 <0>         0.0000
     24 C4          7.9650    3.9430   -5.9810 C.ar      1 <0>         0.0000
     25 C5          5.5890    4.4580   -6.1500 C.ar      1 <0>         0.0000
     26 C6          7.9890    3.7430   -7.3780 C.ar      1 <0>         0.0000
     27 C7          2.2020    3.0030   -6.7840 C.2       1 <0>         0.0000
     28 C8          3.2480    2.6880   -5.9270 C.2       1 <0>         0.0000
     29 C9          1.3760    4.1240   -6.6950 C.3       1 <0>         0.0000
     30 C10         2.1150    4.0230   -4.2710 C.3       1 <0>         0.0000
     31 C11         2.3300    6.1110   -5.5310 C.3       1 <0>         0.0000
     32 C12         4.2680    4.8790   -5.4150 C.3       1 <0>         0.0000
     33 C13         3.5080    3.6610   -4.8110 C.3       1 <0>         0.0000
     34 C14         1.4580    4.8860   -5.3520 C.3       1 <0>         0.0000
     35 C15         4.0960    1.4270   -6.1080 C.3       1 <0>         0.0000
     36 C16         0.0490    5.3320   -4.9360 C.3       1 <0>         0.0000
     37 O1          3.4740    5.6640   -6.2770 O.3       1 <0>         0.0000
     38 O2          9.1530    3.3990   -7.9790 O.3       1 <0>         0.0000
     39 O3         -0.8400    4.2120   -5.0490 O.3       1 <0>         0.0000
@<TRIPOS>BOND
     1    1   21 1
     2    2   22 1
     3    3   23 1
     4    4   24 1
     5    5   27 1
     6    6   29 1
     7    7   29 1
     8    8   30 1
     9    9   30 1
    10   10   31 1
    11   11   31 1
    12   12   32 1
    13   13   33 1
    14   14   35 1
    15   15   35 1
    16   16   35 1
    17   17   36 1
    18   18   36 1
    19   19   38 1
    20   20   39 1
    21   21   23 ar
    22   21   25 ar
    23   22   24 ar
    24   22   25 ar
    25   23   26 ar
    26   24   26 ar
    27   25   32 1
    28   26   38 1
    29   27   28 2
    30   27   29 1
    31   28   33 1
    32   28   35 1
    33   29   34 1
    34   30   33 1
    35   30   34 1
    36   31   34 1
    37   31   37 1
    38   32   33 1
    39   32   37 1
    40   34   36 1
    41   36   39 1
