@<TRIPOS>MOLECULE
****
   59    62     0     0     0
SMALL
NO_CHARGES

@<TRIPOS>ATOM
      1 H1         16.6247   -6.1681    6.6673 H         1 <0>         0.0000
      2 H2         16.9803   -4.4520    4.8071 H         1 <0>         0.0000
      3 H3         17.9959   -6.0125    8.8333 H         1 <0>         0.0000
      4 H4         25.9704   -1.3107    4.5691 H         1 <0>         0.0000
      5 H5         25.1983    0.2774    6.6945 H         1 <0>         0.0000
      6 H6         24.5634   -2.7998    4.1212 H         1 <0>         0.0000
      7 H7         23.1466    0.7759    6.6203 H         1 <0>         0.0000
      8 H8         22.5153   -2.3085    4.0479 H         1 <0>         0.0000
      9 H9         16.9230   -0.7161    4.1574 H         1 <0>         0.0000
     10 H10        19.3401   -2.1075    0.5683 H         1 <0>         0.0000
     11 H11        15.7280   -0.9570    1.9830 H         1 <0>         0.0000
     12 H12        20.6920    0.4940    5.8370 H         1 <0>         0.0000
     13 H13        20.6140   -0.0860    4.3120 H         1 <0>         0.0000
     14 H14        17.8140   -0.5800   -1.0080 H         1 <0>         0.0000
     15 H15        21.5950   -1.8840    2.0630 H         1 <0>         0.0000
     16 C1         17.3610   -5.3870    6.7860 C.3       1 <0>         0.0000
     17 C2         17.5710   -4.4050    5.7100 C.3       1 <0>         0.0000
     18 C3         18.1600   -5.3050    8.0340 C.3       1 <0>         0.0000
     19 C4         18.6320   -3.3180    5.8810 C.3       1 <0>         0.0000
     20 C5         19.2080   -4.2200    8.1770 C.3       1 <0>         0.0000
     21 C6         19.4260   -3.2420    7.1180 C.3       1 <0>         0.0000
     22 C7         19.1140   -2.1850    5.0290 C.3       1 <0>         0.0000
     23 C8         25.2760   -1.3550    5.4210 C.3       1 <0>         0.0000
     24 C9         24.8460    0.0230    5.6840 C.3       1 <0>         0.0000
     25 C10        24.2960   -2.3940    5.1080 C.3       1 <0>         0.0000
     26 C11        23.4160    0.3750    5.6320 C.3       1 <0>         0.0000
     27 C12        22.8700   -2.0480    5.0560 C.3       1 <0>         0.0000
     28 C13        17.1890   -1.5310    3.4680 C.3       1 <0>         0.0000
     29 C14        19.0640   -1.2980    1.2600 C.3       1 <0>         0.0000
     30 C15        22.4450   -0.6620    5.3130 C.3       1 <0>         0.0000
     31 C16        16.6990   -1.1420    2.1330 C.2       1 <0>         0.0000
     32 C17        18.6210   -1.8030    3.6580 C.2       1 <0>         0.0000
     33 C18        17.6330   -1.0330    1.0560 C.2       1 <0>         0.0000
     34 C19        19.5530   -1.6920    2.5970 C.2       1 <0>         0.0000
     35 C20        20.8820   -0.2950    5.2530 C.3       1 <0>         0.0000
     36 C21        20.1330   -4.0190    9.4770 C.3       1 <0>         0.0000
     37 N1         20.3460   -2.1340    7.0430 N.3       1 <0>         0.0000
     38 N2         20.1350   -1.4870    5.7450 N.3       1 <0>         0.0000
     39 O1         17.1670   -0.6580   -0.2490 O.3       1 <0>         0.0000
     40 O2         20.9440   -1.9620    2.8180 O.3       1 <0>         0.0000
     41 F1         19.9890   -2.6960    9.9030 F         1 <0>         0.0000
     42 F2         21.4750   -4.2190    9.1230 F         1 <0>         0.0000
     43 F3         19.7400   -4.8830   10.4330 F         1 <0>         0.0000
     44 H16        17.3610   -5.3870    6.7860 H         1 <0>         0.0000
     45 H17        17.5710   -4.4050    5.7100 H         1 <0>         0.0000
     46 H18        18.1600   -5.3050    8.0340 H         1 <0>         0.0000
     47 H19        18.6320   -3.3180    5.8810 H         1 <0>         0.0000
     48 H20        19.2080   -4.2200    8.1770 H         1 <0>         0.0000
     49 H21        19.4260   -3.2420    7.1180 H         1 <0>         0.0000
     50 H22        19.1140   -2.1850    5.0290 H         1 <0>         0.0000
     51 H23        25.8167   -1.6924    6.3176 H         1 <0>         0.0000
     52 H24        25.3561    0.6602    4.9466 H         1 <0>         0.0000
     53 H25        24.4075   -3.1795    5.8699 H         1 <0>         0.0000
     54 H26        23.3057    1.1642    4.8737 H         1 <0>         0.0000
     55 H27        22.3612   -2.6803    5.7985 H         1 <0>         0.0000
     56 H28        16.6481   -2.4449    3.7545 H         1 <0>         0.0000
     57 H29        19.6011   -0.3792    0.9821 H         1 <0>         0.0000
     58 H30        22.5437   -0.4297    4.2423 H         1 <0>         0.0000
     59 H31        21.0038   -1.8591    7.7443 H         1 <0>         0.0000
@<TRIPOS>BOND
     1    1   16 1
     2    2   17 1
     3    3   18 1
     4    4   23 1
     5    5   24 1
     6    6   25 1
     7    7   26 1
     8    8   27 1
     9    9   28 1
    10   10   29 1
    11   11   31 1
    12   12   35 1
    13   13   35 1
    14   14   39 1
    15   15   40 1
    16   16   17 1
    17   16   18 1
    18   17   19 1
    19   18   20 1
    20   19   21 1
    21   19   22 1
    22   20   21 1
    23   20   36 1
    24   21   37 1
    25   22   32 1
    26   22   38 1
    27   23   24 1
    28   23   25 1
    29   24   26 1
    30   25   27 1
    31   26   30 1
    32   27   30 1
    33   28   31 1
    34   28   32 1
    35   29   33 1
    36   29   34 1
    37   30   35 1
    38   31   33 2
    39   32   34 2
    40   33   39 1
    41   34   40 1
    42   35   38 1
    43   36   41 1
    44   36   42 1
    45   36   43 1
    46   37   38 1
    47   16   44 1
    48   17   45 1
    49   18   46 1
    50   19   47 1
    51   20   48 1
    52   21   49 1
    53   22   50 1
    54   23   51 1
    55   24   52 1
    56   25   53 1
    57   26   54 1
    58   27   55 1
    59   28   56 1
    60   29   57 1
    61   30   58 1
    62   37   59 1
