@<TRIPOS>MOLECULE
****
   40    42     0     0     0
SMALL
NO_CHARGES

@<TRIPOS>ATOM
      1 H1         12.8040    4.8580   33.0330 H         1 <0>         0.0000
      2 H2         13.7800    3.9760   36.8550 H         1 <0>         0.0000
      3 H3         10.5550    4.5610   33.5450 H         1 <0>         0.0000
      4 H4         11.5370    3.6840   37.3630 H         1 <0>         0.0000
      5 H5         14.9330    5.8190   32.8880 H         1 <0>         0.0000
      6 H6         14.7540    6.6790   34.2640 H         1 <0>         0.0000
      7 H7         17.4650    2.7700   31.6260 H         1 <0>         0.0000
      8 H8         16.3990    4.0030   31.5270 H         1 <0>         0.0000
      9 H9         18.0660    5.4300   31.0900 H         1 <0>         0.0000
     10 H10        19.1240    4.1860   31.1300 H         1 <0>         0.0000
     11 H11        16.9370    6.8560   34.5970 H         1 <0>         0.0000
     12 H12        16.9600    6.7230   32.9700 H         1 <0>         0.0000
     13 H13        15.1050    3.2800   33.0310 H         1 <0>         0.0000
     14 H14        15.5710    2.6450   34.4610 H         1 <0>         0.0000
     15 H15        15.4460    4.7170   35.4850 H         1 <0>         0.0000
     16 H16        17.6580    2.9460   33.8690 H         1 <0>         0.0000
     17 H17        19.2010    6.0930   32.9130 H         1 <0>         0.0000
     18 H18        18.8450    4.1870   35.4920 H         1 <0>         0.0000
     19 H19        18.6980    5.8070   35.6360 H         1 <0>         0.0000
     20 H20        17.4400    4.8370   36.0130 H         1 <0>         0.0000
     21 H21         9.2740    3.6630   36.7520 H         1 <0>         0.0000
     22 H22        20.8510    4.7630   33.1010 H         1 <0>         0.0000
     23 C1         12.5420    4.6040   33.9640 C.ar      1 <0>         0.0000
     24 C2         13.0960    4.1030   36.1370 C.ar      1 <0>         0.0000
     25 C3         11.2410    4.4330   34.2610 C.ar      1 <0>         0.0000
     26 C4         11.7990    3.9340   36.4310 C.ar      1 <0>         0.0000
     27 C5         13.4970    4.4390   34.8990 C.ar      1 <0>         0.0000
     28 C6         10.8440    4.0930   35.5010 C.ar      1 <0>         0.0000
     29 C7         15.2500    5.9270   33.8300 C.3       1 <0>         0.0000
     30 C8         17.2470    3.6890   31.9540 C.3       1 <0>         0.0000
     31 C9         18.3990    4.6580   31.6320 C.3       1 <0>         0.0000
     32 C10        16.7540    6.2480   33.8250 C.3       1 <0>         0.0000
     33 C11        15.6220    3.4500   33.8700 C.3       1 <0>         0.0000
     34 C12        14.9810    4.6330   34.6040 C.3       1 <0>         0.0000
     35 C13        17.1040    3.6890   33.4930 C.3       1 <0>         0.0000
     36 C14        18.9130    5.1380   32.9890 C.3       1 <0>         0.0000
     37 C15        17.7150    5.0460   33.9370 C.3       1 <0>         0.0000
     38 C16        18.2190    4.9620   35.3990 C.3       1 <0>         0.0000
     39 O1          9.5320    3.9160   35.8200 O.3       1 <0>         0.0000
     40 O2         19.9970    4.3610   33.4300 O.3       1 <0>         0.0000
@<TRIPOS>BOND
     1    1   23 1
     2    2   24 1
     3    3   25 1
     4    4   26 1
     5    5   29 1
     6    6   29 1
     7    7   30 1
     8    8   30 1
     9    9   31 1
    10   10   31 1
    11   11   32 1
    12   12   32 1
    13   13   33 1
    14   14   33 1
    15   15   34 1
    16   16   35 1
    17   17   36 1
    18   18   38 1
    19   19   38 1
    20   20   38 1
    21   21   39 1
    22   22   40 1
    23   23   25 ar
    24   23   27 ar
    25   24   26 ar
    26   24   27 ar
    27   25   28 ar
    28   26   28 ar
    29   27   34 1
    30   28   39 1
    31   29   32 1
    32   29   34 1
    33   30   31 1
    34   30   35 1
    35   31   36 1
    36   32   37 1
    37   33   34 1
    38   33   35 1
    39   35   37 1
    40   36   37 1
    41   36   40 1
    42   37   38 1
