@<TRIPOS>MOLECULE
****
   36    38     0     0     0
SMALL
NO_CHARGES

@<TRIPOS>ATOM
      1 H1        -21.1490  -29.8980   -6.5400 H         1 <0>         0.0000
      2 H2        -20.0200  -25.7510   -1.8190 H         1 <0>         0.0000
      3 H3        -21.4050  -31.2280   -8.4270 H         1 <0>         0.0000
      4 H4        -18.9570  -24.8830    0.1390 H         1 <0>         0.0000
      5 H5        -19.4760  -28.3850  -10.7050 H         1 <0>         0.0000
      6 H6        -15.4720  -24.6630   -1.9400 H         1 <0>         0.0000
      7 H7        -21.8838  -27.2098   -5.5346 H         1 <0>         0.0000
      8 H8        -20.7200  -24.6440   -3.0670 H         1 <0>         0.0000
      9 H9        -21.5230  -24.2420   -4.4320 H         1 <0>         0.0000
     10 H10       -22.0670  -25.4630   -3.4930 H         1 <0>         0.0000
     11 H11       -20.2700  -30.3480  -11.8410 H         1 <0>         0.0000
     12 H12       -16.9240  -24.0370    1.1540 H         1 <0>         0.0000
     13 C1        -20.7930  -29.5900   -7.4220 C.ar      1 <0>         0.0000
     14 C2        -19.0450  -25.5300   -1.8490 C.ar      1 <0>         0.0000
     15 C3        -20.9460  -30.3420   -8.4950 C.ar      1 <0>         0.0000
     16 C4        -18.4350  -25.0130   -0.7040 C.ar      1 <0>         0.0000
     17 C5        -19.8300  -28.7060   -9.8270 C.ar      1 <0>         0.0000
     18 C6        -16.4440  -24.8950   -1.9030 C.ar      1 <0>         0.0000
     19 C7        -20.1350  -28.3660   -7.5200 C.ar      1 <0>         0.0000
     20 C8        -18.3440  -25.7480   -3.0290 C.ar      1 <0>         0.0000
     21 C9        -20.4530  -29.8840   -9.7530 C.ar      1 <0>         0.0000
     22 C10       -17.1280  -24.6930   -0.7610 C.ar      1 <0>         0.0000
     23 C11       -19.6720  -27.9320   -8.7020 C.ar      1 <0>         0.0000
     24 C12       -17.0560  -25.4130   -3.0180 C.ar      1 <0>         0.0000
     25 C13       -20.9910  -26.6250   -5.8010 C.3       1 <0>         0.0000
     26 C14       -20.4500  -25.9290   -4.5820 C.3       1 <0>         0.0000
     27 C15       -19.9360  -27.5190   -6.3030 C.2       1 <0>         0.0000
     28 C16       -19.0810  -26.3180   -4.2540 C.2       1 <0>         0.0000
     29 C17       -21.2510  -24.9990   -3.8370 C.3       1 <0>         0.0000
     30 O1        -20.6220  -30.6840  -10.9670 O.3       1 <0>         0.0000
     31 O2        -16.4550  -24.1900    0.2840 O.3       1 <0>         0.0000
     32 S1        -18.6110  -27.3900   -5.3920 S.3       1 <0>         0.0000
     33 Cl1       -18.8510  -26.4060   -8.7850 Cl        1 <0>         0.0000
     34 Cl2       -16.0140  -25.6160   -4.4290 Cl        1 <0>         0.0000
     35 H13       -21.2539  -25.8846   -6.5708 H         1 <0>         0.0000
     36 H14       -20.0725  -25.1092   -5.2108 H         1 <0>         0.0000
@<TRIPOS>BOND
     1    1   13 1
     2    2   14 1
     3    3   15 1
     4    4   16 1
     5    5   17 1
     6    6   18 1
     7    7   25 1
     8    8   29 1
     9    9   29 1
    10   10   29 1
    11   11   30 1
    12   12   31 1
    13   13   15 ar
    14   13   19 ar
    15   14   16 ar
    16   14   20 ar
    17   15   21 ar
    18   16   22 ar
    19   17   21 ar
    20   17   23 ar
    21   18   22 ar
    22   18   24 ar
    23   19   23 ar
    24   19   27 1
    25   20   24 ar
    26   20   28 1
    27   21   30 1
    28   22   31 1
    29   23   33 1
    30   24   34 1
    31   25   26 1
    32   25   27 1
    33   26   28 1
    34   26   29 1
    35   27   32 2
    36   28   32 2
    37   25   35 1
    38   26   36 1
