@<TRIPOS>MOLECULE
****
   48    50     0     0     0
SMALL
NO_CHARGES

@<TRIPOS>ATOM
      1 H1        -14.1650   -4.7040   49.6490 H         1 <0>         0.0000
      2 H2        -13.0040   -0.8020   49.9340 H         1 <0>         0.0000
      3 H3        -12.9770   -3.0460   52.3600 H         1 <0>         0.0000
      4 H4         -9.4480   -2.5140   50.3780 H         1 <0>         0.0000
      5 H5        -16.4620   -4.0190   49.5100 H         1 <0>         0.0000
      6 H6        -15.3130   -0.1070   49.7480 H         1 <0>         0.0000
      7 H7        -11.9400   -2.3940   54.4200 H         1 <0>         0.0000
      8 H8         -8.4320   -1.7740   52.3970 H         1 <0>         0.0000
      9 H9         -9.3460   -4.2880   48.5440 H         1 <0>         0.0000
     10 H10        -9.7900   -4.5960   50.0850 H         1 <0>         0.0000
     11 H11       -12.8880   -3.7380   47.6300 H         1 <0>         0.0000
     12 H12       -11.4340   -3.6970   46.8880 H         1 <0>         0.0000
     13 H13        -9.3080   -6.5720   48.8360 H         1 <0>         0.0000
     14 H14       -10.8150   -6.5630   49.4650 H         1 <0>         0.0000
     15 H15       -10.9470   -7.3390   47.2770 H         1 <0>         0.0000
     16 H16       -10.1440   -6.0270   46.7280 H         1 <0>         0.0000
     17 H17       -12.6930   -6.0020   48.0090 H         1 <0>         0.0000
     18 H18       -12.0070   -5.6740   45.2400 H         1 <0>         0.0000
     19 H19       -12.9740   -6.8230   45.8830 H         1 <0>         0.0000
     20 H20       -13.8330   -4.1180   46.2190 H         1 <0>         0.0000
     21 H21       -14.0050   -4.7570   44.7260 H         1 <0>         0.0000
     22 H22       -18.1440   -2.3740   49.4670 H         1 <0>         0.0000
     23 H23        -9.9590   -1.6000   55.5800 H         1 <0>         0.0000
     24 H24       -14.7560   -6.2830   46.8760 H         1 <0>         0.0000
     25 C1        -14.3940   -3.7310   49.6730 C.ar      1 <0>         0.0000
     26 C2        -13.7230   -1.4890   49.8310 C.ar      1 <0>         0.0000
     27 C3        -12.0090   -2.7950   52.3730 C.ar      1 <0>         0.0000
     28 C4         -9.9840   -2.4790   51.2220 C.ar      1 <0>         0.0000
     29 C5        -15.7420   -3.3300   49.5870 C.ar      1 <0>         0.0000
     30 C6        -15.0810   -1.0800   49.7300 C.ar      1 <0>         0.0000
     31 C7        -11.4140   -2.3990   53.5690 C.ar      1 <0>         0.0000
     32 C8         -9.3920   -2.0560   52.3970 C.ar      1 <0>         0.0000
     33 C9        -13.3960   -2.8030   49.7890 C.ar      1 <0>         0.0000
     34 C10       -11.2750   -2.8430   51.2090 C.ar      1 <0>         0.0000
     35 C11       -16.0670   -2.0140   49.6080 C.ar      1 <0>         0.0000
     36 C12       -10.1120   -2.0200   53.5630 C.ar      1 <0>         0.0000
     37 C13       -11.3080   -3.8950   48.9230 C.2       1 <0>         0.0000
     38 C14       -11.9490   -3.2630   49.9280 C.2       1 <0>         0.0000
     39 C15       -10.0610   -4.6760   49.1260 C.3       1 <0>         0.0000
     40 C16       -11.9700   -4.1330   47.6110 C.3       1 <0>         0.0000
     41 C17       -10.2090   -6.1400   48.7910 C.3       1 <0>         0.0000
     42 C18       -10.7820   -6.3630   47.4210 C.3       1 <0>         0.0000
     43 C19       -12.0720   -5.6120   47.3290 C.3       1 <0>         0.0000
     44 C20       -12.6930   -5.8650   45.9430 C.3       1 <0>         0.0000
     45 C21       -13.9200   -4.9680   45.7000 C.3       1 <0>         0.0000
     46 O1        -17.4470   -1.6600   49.5330 O.3       1 <0>         0.0000
     47 O2         -9.4670   -1.6180   54.7100 O.3       1 <0>         0.0000
     48 O3        -15.0210   -5.6730   46.1290 O.3       1 <0>         0.0000
@<TRIPOS>BOND
     1    1   25 1
     2    2   26 1
     3    3   27 1
     4    4   28 1
     5    5   29 1
     6    6   30 1
     7    7   31 1
     8    8   32 1
     9    9   39 1
    10   10   39 1
    11   11   40 1
    12   12   40 1
    13   13   41 1
    14   14   41 1
    15   15   42 1
    16   16   42 1
    17   17   43 1
    18   18   44 1
    19   19   44 1
    20   20   45 1
    21   21   45 1
    22   22   46 1
    23   23   47 1
    24   24   48 1
    25   25   29 ar
    26   25   33 ar
    27   26   30 ar
    28   26   33 ar
    29   27   31 ar
    30   27   34 ar
    31   28   32 ar
    32   28   34 ar
    33   29   35 ar
    34   30   35 ar
    35   31   36 ar
    36   32   36 ar
    37   33   38 1
    38   34   38 1
    39   35   46 1
    40   36   47 1
    41   37   38 2
    42   37   39 1
    43   37   40 1
    44   39   41 1
    45   40   43 1
    46   41   42 1
    47   42   43 1
    48   43   44 1
    49   44   45 1
    50   45   48 1
