@<TRIPOS>MOLECULE
****
   65    69     0     0     0
SMALL
NO_CHARGES

@<TRIPOS>ATOM
      1 H1        -21.2408    1.1830   -7.6575 H         1 <0>         0.0000
      2 H2        -18.8360    0.1470   -7.2640 H         1 <0>         0.0000
      3 H3        -21.7320    8.4630   -0.0450 H         1 <0>         0.0000
      4 H4        -19.4250    8.5200   -0.5940 H         1 <0>         0.0000
      5 H5        -25.7730    3.1570   -1.1180 H         1 <0>         0.0000
      6 H6        -29.3790    2.1010   -2.7910 H         1 <0>         0.0000
      7 H7        -23.2360    7.1500   -1.3380 H         1 <0>         0.0000
      8 H8        -26.3090    1.9110    0.8300 H         1 <0>         0.0000
      9 H9        -29.9200    0.8540   -0.8420 H         1 <0>         0.0000
     10 H10       -20.1020    5.9330   -3.7200 H         1 <0>         0.0000
     11 H11       -19.0890   -2.0400   -5.9620 H         1 <0>         0.0000
     12 H12       -22.6980    2.3660   -6.2480 H         1 <0>         0.0000
     13 H13       -22.3780    1.4010   -4.9700 H         1 <0>         0.0000
     14 H14       -25.6080    0.1430   -6.9740 H         1 <0>         0.0000
     15 H15       -25.2480    1.7190   -7.2060 H         1 <0>         0.0000
     16 H16       -26.9740    1.7100   -5.6860 H         1 <0>         0.0000
     17 H17       -26.9240    0.3850   -3.7220 H         1 <0>         0.0000
     18 H18       -26.8130   -0.5770   -5.0370 H         1 <0>         0.0000
     19 H19       -25.4770   -0.2270   -4.1650 H         1 <0>         0.0000
     20 H20       -17.4730    6.0680   -0.9900 H         1 <0>         0.0000
     21 H21       -16.3030    7.0360   -1.5890 H         1 <0>         0.0000
     22 H22       -17.4670    7.6600   -0.6300 H         1 <0>         0.0000
     23 H23       -27.8300    3.1990   -4.0910 H         1 <0>         0.0000
     24 H24       -27.3760    4.4760   -3.1800 H         1 <0>         0.0000
     25 H25       -17.9300    6.5870   -3.2670 H         1 <0>         0.0000
     26 H26       -23.4610    6.1260   -3.8040 H         1 <0>         0.0000
     27 H27       -18.3690    8.7670   -3.8320 H         1 <0>         0.0000
     28 C1        -20.9930    0.2680   -7.1400 C.3       1 <0>         0.0000
     29 C2        -19.6940   -0.2590   -6.9490 C.2       1 <0>         0.0000
     30 C3        -21.3910    7.9310   -0.8200 C.ar      1 <0>         0.0000
     31 C4        -20.0520    7.9630   -1.1380 C.ar      1 <0>         0.0000
     32 C5        -26.6450    2.6720   -1.0620 C.ar      1 <0>         0.0000
     33 C6        -28.7320    2.0610   -2.0300 C.ar      1 <0>         0.0000
     34 C7        -22.2620    7.1700   -1.5650 C.ar      1 <0>         0.0000
     35 C8        -26.9540    1.9510    0.0670 C.ar      1 <0>         0.0000
     36 C9        -29.0470    1.3380   -0.9020 C.ar      1 <0>         0.0000
     37 C10       -20.4420    6.4670   -2.9460 C.ar      1 <0>         0.0000
     38 C11       -19.8320   -1.4350   -6.2480 C.2       1 <0>         0.0000
     39 C12       -21.8840   -0.5980   -6.5460 C.2       1 <0>         0.0000
     40 C13       -27.5310    2.7300   -2.1180 C.ar      1 <0>         0.0000
     41 C14       -19.5720    7.2320   -2.2020 C.ar      1 <0>         0.0000
     42 C15       -21.7810    6.4370   -2.6250 C.ar      1 <0>         0.0000
     43 C16       -28.1540    1.2860    0.1410 C.ar      1 <0>         0.0000
     44 C17       -24.0130    2.5860   -4.7110 C.2       1 <0>         0.0000
     45 C18       -23.7650    3.6820   -3.8490 C.2       1 <0>         0.0000
     46 C19       -25.3610    2.3720   -4.6370 C.cat     1 <0>         0.0000
     47 C20       -23.3070   -0.5340   -6.4550 C.2       1 <0>         0.0000
     48 C21       -22.5140    4.3200   -3.5570 C.2       1 <0>         0.0000
     49 C22       -23.1030    1.7860   -5.5420 C.3       1 <0>         0.0000
     50 C23       -25.2330    0.9660   -6.5480 C.3       1 <0>         0.0000
     51 C24       -26.1030    1.3390   -5.3640 C.3       1 <0>         0.0000
     52 C25       -26.3500    0.1280   -4.4990 C.3       1 <0>         0.0000
     53 C26       -17.2690    6.9830   -1.3380 C.3       1 <0>         0.0000
     54 C27       -27.2230    3.5040   -3.3570 C.3       1 <0>         0.0000
     55 C28       -18.1220    7.2620   -2.5540 C.3       1 <0>         0.0000
     56 N1        -24.8940    4.1200   -3.2800 N.2       1 <0>         0.0000
     57 N2        -21.1620   -1.6290   -6.0120 N.2       1 <0>         0.0000
     58 N3        -23.8540    0.7070   -6.1690 N.am      1 <0>         0.0000
     59 N4        -25.8470    3.3100   -3.7720 N.pl3     1 <0>         0.0000
     60 N5        -22.6770    5.6730   -3.3800 N.am      1 <0>         0.0000
     61 O1        -23.9750   -1.5440   -6.6290 O.2       1 <0>         0.0000
     62 O2        -21.4620    3.7000   -3.4990 O.2       1 <0>         0.0000
     63 O3        -17.8130    8.5640   -3.0260 O.3       1 <0>         0.0000
     64 F1        -28.4510    0.5830    1.2450 F         1 <0>         0.0000
     65 H28       -20.9930    0.2680   -7.1400 H         1 <0>         0.0000
@<TRIPOS>BOND
     1    1   28 1
     2    2   29 1
     3    3   30 1
     4    4   31 1
     5    5   32 1
     6    6   33 1
     7    7   34 1
     8    8   35 1
     9    9   36 1
    10   10   37 1
    11   11   38 1
    12   12   49 1
    13   13   49 1
    14   14   50 1
    15   15   50 1
    16   16   51 1
    17   17   52 1
    18   18   52 1
    19   19   52 1
    20   20   53 1
    21   21   53 1
    22   22   53 1
    23   23   54 1
    24   24   54 1
    25   25   55 1
    26   26   60 1
    27   27   63 1
    28   28   29 1
    29   28   39 1
    30   29   38 2
    31   30   31 ar
    32   30   34 ar
    33   31   41 ar
    34   32   35 ar
    35   32   40 ar
    36   33   36 ar
    37   33   40 ar
    38   34   42 ar
    39   35   43 ar
    40   36   43 ar
    41   37   41 ar
    42   37   42 ar
    43   38   57 1
    44   39   47 1
    45   39   57 2
    46   40   54 1
    47   41   55 1
    48   42   60 1
    49   43   64 1
    50   44   45 2
    51   44   46 1
    52   44   49 1
    53   45   48 1
    54   45   56 1
    55   46   51 1
    56   46   59 1
    57   47   58 am
    58   47   61 2
    59   48   60 am
    60   48   62 2
    61   49   58 1
    62   50   51 1
    63   50   58 1
    64   51   52 1
    65   53   55 1
    66   54   59 1
    67   55   63 1
    68   56   59 2
    69   28   65 1
