@<TRIPOS>MOLECULE
****
   74    79     0     0     0
SMALL
NO_CHARGES

@<TRIPOS>ATOM
      1 H1         12.7930   25.4450  182.1940 H         1 <0>         0.0000
      2 H2         10.8760   24.3640  183.1490 H         1 <0>         0.0000
      3 H3         14.8750   15.9880  183.0200 H         1 <0>         0.0000
      4 H4         16.1760   16.8950  183.4100 H         1 <0>         0.0000
      5 H5         14.4000   17.5230  184.8070 H         1 <0>         0.0000
      6 H6         13.4320   17.7700  183.5150 H         1 <0>         0.0000
      7 H7         14.4390   17.3470  181.1530 H         1 <0>         0.0000
      8 H8         15.9870   16.8360  181.0680 H         1 <0>         0.0000
      9 H9         15.7740   19.3300  184.1480 H         1 <0>         0.0000
     10 H10        14.2340   19.8500  184.3010 H         1 <0>         0.0000
     11 H11        15.8440   19.1660  180.5770 H         1 <0>         0.0000
     12 H12        16.7340   18.9180  181.9240 H         1 <0>         0.0000
     13 H13         9.8850   20.1030  186.0810 H         1 <0>         0.0000
     14 H14         9.0140   19.5250  184.8260 H         1 <0>         0.0000
     15 H15        19.5190   22.7300  182.9070 H         1 <0>         0.0000
     16 H16        18.0210   22.2890  182.4290 H         1 <0>         0.0000
     17 H17        17.5770   21.8150  180.0160 H         1 <0>         0.0000
     18 H18        18.7860   21.9490  178.9270 H         1 <0>         0.0000
     19 H19        21.0700   22.5980  179.6750 H         1 <0>         0.0000
     20 H20        21.3540   22.9100  181.2520 H         1 <0>         0.0000
     21 H21        20.4180   24.9470  182.3110 H         1 <0>         0.0000
     22 H22        19.5240   25.9920  181.4310 H         1 <0>         0.0000
     23 H23        19.0820   25.5120  179.0010 H         1 <0>         0.0000
     24 H24        19.6880   24.1540  178.3250 H         1 <0>         0.0000
     25 H25        11.6470   20.2570  184.7280 H         1 <0>         0.0000
     26 H26        10.7360   19.8240  183.4440 H         1 <0>         0.0000
     27 H27         8.8690   22.5240  183.2210 H         1 <0>         0.0000
     28 H28         9.5390   23.4200  184.4100 H         1 <0>         0.0000
     29 H29        19.6560   21.2390  181.0410 H         1 <0>         0.0000
     30 H30        18.1030   24.6420  182.7880 H         1 <0>         0.0000
     31 H31        17.3700   23.8620  178.8150 H         1 <0>         0.0000
     32 H32         8.8210   22.0220  185.9990 H         1 <0>         0.0000
     33 H33        17.2650   25.3520  180.6740 H         1 <0>         0.0000
     34 H34        13.9460   19.6630  181.9380 H         1 <0>         0.0000
     35 H35         6.8140   22.1340  184.6930 H         1 <0>         0.0000
     36 H36         7.2860   20.8010  183.8770 H         1 <0>         0.0000
     37 H37        16.1700   22.7160  181.1570 H         1 <0>         0.0000
     38 H38        21.2730   26.1330  179.7750 H         1 <0>         0.0000
     39 C1         12.8240   24.4720  182.4210 C.ar      1 <0>         0.0000
     40 C2         11.7140   23.8470  182.9740 C.ar      1 <0>         0.0000
     41 C3         13.9780   23.7350  182.1850 C.ar      1 <0>         0.0000
     42 C4         11.7830   22.4930  183.2810 C.ar      1 <0>         0.0000
     43 C5         14.0040   22.3880  182.5110 C.ar      1 <0>         0.0000
     44 C6         15.1730   24.4230  181.5920 C.2       1 <0>         0.0000
     45 C7          6.7390   20.4070  185.8360 C.2       1 <0>         0.0000
     46 C8         15.2580   16.9120  183.0150 C.3       1 <0>         0.0000
     47 C9         14.3710   17.8240  183.8540 C.3       1 <0>         0.0000
     48 C10        15.3430   17.4090  181.5750 C.3       1 <0>         0.0000
     49 C11        14.8500   19.2680  183.7710 C.3       1 <0>         0.0000
     50 C12        15.8180   18.8570  181.5280 C.3       1 <0>         0.0000
     51 C13         9.5830   20.2830  185.1450 C.3       1 <0>         0.0000
     52 C14        18.8440   22.7960  182.1720 C.3       1 <0>         0.0000
     53 C15        18.4010   22.3250  179.7700 C.3       1 <0>         0.0000
     54 C16        20.6830   22.9800  180.5140 C.3       1 <0>         0.0000
     55 C17        19.7480   25.0280  181.5730 C.3       1 <0>         0.0000
     56 C18        19.3060   24.5500  179.1600 C.3       1 <0>         0.0000
     57 C19        10.7950   20.4330  184.2350 C.3       1 <0>         0.0000
     58 C20         9.4140   22.4920  184.0590 C.3       1 <0>         0.0000
     59 C21        19.4270   22.2010  180.8940 C.3       1 <0>         0.0000
     60 C22        18.4850   24.2610  181.9460 C.3       1 <0>         0.0000
     61 C23        18.0420   23.7910  179.5520 C.3       1 <0>         0.0000
     62 C24         8.7810   21.5790  185.1040 C.3       1 <0>         0.0000
     63 C25        17.4590   24.3830  180.8280 C.3       1 <0>         0.0000
     64 C26        14.8660   19.7430  182.3210 C.3       1 <0>         0.0000
     65 C27        20.3300   24.4450  180.2880 C.3       1 <0>         0.0000
     66 C28         7.3290   21.2790  184.7540 C.3       1 <0>         0.0000
     67 N1         12.9150   21.8000  183.0480 N.ar      1 <0>         0.0000
     68 N2         10.6880   21.8280  183.8410 N.pl3     1 <0>         0.0000
     69 N3         16.2270   23.7140  181.1980 N.am      1 <0>         0.0000
     70 O1          6.8690   20.7100  187.0110 O.co2     1 <0>         0.0000
     71 O2         15.1550   25.6390  181.4870 O.2       1 <0>         0.0000
     72 O3          6.0680   19.3020  185.5260 O.co2     1 <0>         0.0000
     73 O4         21.5070   25.1720  179.9230 O.3       1 <0>         0.0000
     74 S1         15.3790   21.4330  182.2520 S.3       1 <0>         0.0000
@<TRIPOS>BOND
     1    1   39 1
     2    2   40 1
     3    3   46 1
     4    4   46 1
     5    5   47 1
     6    6   47 1
     7    7   48 1
     8    8   48 1
     9    9   49 1
    10   10   49 1
    11   11   50 1
    12   12   50 1
    13   13   51 1
    14   14   51 1
    15   15   52 1
    16   16   52 1
    17   17   53 1
    18   18   53 1
    19   19   54 1
    20   20   54 1
    21   21   55 1
    22   22   55 1
    23   23   56 1
    24   24   56 1
    25   25   57 1
    26   26   57 1
    27   27   58 1
    28   28   58 1
    29   29   59 1
    30   30   60 1
    31   31   61 1
    32   32   62 1
    33   33   63 1
    34   34   64 1
    35   35   66 1
    36   36   66 1
    37   37   69 1
    38   38   73 1
    39   39   40 ar
    40   39   41 ar
    41   40   42 ar
    42   41   43 ar
    43   41   44 1
    44   42   67 ar
    45   42   68 1
    46   43   67 ar
    47   43   74 1
    48   44   69 am
    49   44   71 2
    50   45   66 1
    51   45   70 1
    52   45   72 2
    53   46   47 1
    54   46   48 1
    55   47   49 1
    56   48   50 1
    57   49   64 1
    58   50   64 1
    59   51   57 1
    60   51   62 1
    61   52   59 1
    62   52   60 1
    63   53   59 1
    64   53   61 1
    65   54   59 1
    66   54   65 1
    67   55   60 1
    68   55   65 1
    69   56   61 1
    70   56   65 1
    71   57   68 1
    72   58   62 1
    73   58   68 1
    74   60   63 1
    75   61   63 1
    76   62   66 1
    77   63   69 1
    78   64   74 1
    79   65   73 1
