@<TRIPOS>MOLECULE
****
   64    67     0     0     0
SMALL
NO_CHARGES

@<TRIPOS>ATOM
      1 H1        -26.4969  -40.9078   69.9236 H         1 <0>         0.0000
      2 H2        -22.3610  -40.4090   69.2130 H         1 <0>         0.0000
      3 H3        -26.3100  -42.5230   78.8890 H         1 <0>         0.0000
      4 H4        -25.7950  -45.0580   75.6580 H         1 <0>         0.0000
      5 H5        -26.1630  -40.6250   77.4690 H         1 <0>         0.0000
      6 H6        -25.5810  -43.1450   74.2280 H         1 <0>         0.0000
      7 H7        -21.9500  -40.2670   71.5720 H         1 <0>         0.0000
      8 H8        -21.5810  -41.7540   73.9420 H         1 <0>         0.0000
      9 H9        -22.7910  -42.3680   74.8510 H         1 <0>         0.0000
     10 H10       -19.7250  -40.3480   75.1320 H         1 <0>         0.0000
     11 H11       -19.9280  -40.0090   76.7170 H         1 <0>         0.0000
     12 H12       -22.5710  -38.3050   74.0270 H         1 <0>         0.0000
     13 H13       -21.4480  -39.3460   73.4590 H         1 <0>         0.0000
     14 H14       -21.9450  -41.2200   76.7520 H         1 <0>         0.0000
     15 H15       -23.4650  -40.1060   75.3660 H         1 <0>         0.0000
     16 H16       -20.0000  -42.5350   77.1760 H         1 <0>         0.0000
     17 H17       -21.1920  -43.4350   76.5160 H         1 <0>         0.0000
     18 H18       -19.9390  -42.9370   75.5950 H         1 <0>         0.0000
     19 H19       -19.5400  -38.0830   74.4040 H         1 <0>         0.0000
     20 H20       -20.5960  -36.9320   74.8790 H         1 <0>         0.0000
     21 H21       -19.5690  -37.5950   75.9620 H         1 <0>         0.0000
     22 H22       -22.7280  -39.0360   76.8420 H         1 <0>         0.0000
     23 H23       -21.4750  -38.1630   77.4200 H         1 <0>         0.0000
     24 H24       -22.5010  -37.4990   76.3370 H         1 <0>         0.0000
     25 H25       -28.3040  -44.9190   78.4240 H         1 <0>         0.0000
     26 H26       -27.8020  -46.0720   77.3820 H         1 <0>         0.0000
     27 H27       -27.8060  -46.3690   78.9880 H         1 <0>         0.0000
     28 H28       -24.2330  -45.7810   78.2760 H         1 <0>         0.0000
     29 H29       -25.2320  -46.9150   78.8940 H         1 <0>         0.0000
     30 H30       -25.2270  -46.6190   77.2890 H         1 <0>         0.0000
     31 H31       -26.1160  -44.7700   79.3120 H         1 <0>         0.0000
     32 H32       -26.0080  -39.7620   75.4380 H         1 <0>         0.0000
     33 C1        -25.4910  -40.7680   70.2910 C.3       1 <0>         0.0000
     34 C2        -23.1190  -40.4810   69.8610 C.2       1 <0>         0.0000
     35 C3        -26.1700  -42.6550   77.9080 C.ar      1 <0>         0.0000
     36 C4        -25.8630  -44.1360   76.0390 C.ar      1 <0>         0.0000
     37 C5        -26.0730  -41.5460   77.0900 C.ar      1 <0>         0.0000
     38 C6        -25.7430  -43.0210   75.2070 C.ar      1 <0>         0.0000
     39 C7        -22.8810  -40.4000   71.2330 C.2       1 <0>         0.0000
     40 C8        -24.4280  -40.6640   69.3980 C.2       1 <0>         0.0000
     41 C9        -25.2510  -40.6910   71.6570 C.2       1 <0>         0.0000
     42 C10       -26.0790  -43.9550   77.4060 C.ar      1 <0>         0.0000
     43 C11       -25.8490  -41.7310   75.7370 C.ar      1 <0>         0.0000
     44 C12       -23.9460  -40.5050   72.1340 C.2       1 <0>         0.0000
     45 C13       -25.3220  -40.6320   73.7740 C.cat     1 <0>         0.0000
     46 C14       -24.7130  -40.7650   67.9070 C.2       1 <0>         0.0000
     47 C15       -22.1740  -41.5900   74.7300 C.3       1 <0>         0.0000
     48 C16       -20.3980  -40.1590   75.8470 C.3       1 <0>         0.0000
     49 C17       -22.0350  -39.1230   74.2370 C.3       1 <0>         0.0000
     50 C18       -21.3170  -41.4050   75.9960 C.3       1 <0>         0.0000
     51 C19       -22.9940  -40.3040   74.5060 C.3       1 <0>         0.0000
     52 C20       -21.1600  -38.8510   75.4690 C.3       1 <0>         0.0000
     53 C21       -20.5440  -42.6910   76.3520 C.3       1 <0>         0.0000
     54 C22       -20.1270  -37.7720   75.1510 C.3       1 <0>         0.0000
     55 C23       -22.0430  -38.3430   76.6170 C.3       1 <0>         0.0000
     56 C24       -27.6590  -45.6710   78.2870 C.3       1 <0>         0.0000
     57 C25       -25.1340  -46.2070   78.1950 C.3       1 <0>         0.0000
     58 C26       -26.2270  -45.1390   78.3890 C.3       1 <0>         0.0000
     59 N1        -26.0770  -40.7610   72.6930 N.2       1 <0>         0.0000
     60 N2        -24.0480  -40.4730   73.4630 N.pl3     1 <0>         0.0000
     61 N3        -25.7490  -40.6330   75.0200 N.pl3     1 <0>         0.0000
     62 O1        -25.4930  -41.6680   67.5280 O.co2     1 <0>         0.0000
     63 O2        -24.1260  -39.9630   67.1550 O.co2     1 <0>         0.0000
     64 H33       -25.4910  -40.7680   70.2910 H         1 <0>         0.0000
@<TRIPOS>BOND
     1    1   33 1
     2    2   34 1
     3    3   35 1
     4    4   36 1
     5    5   37 1
     6    6   38 1
     7    7   39 1
     8    8   47 1
     9    9   47 1
    10   10   48 1
    11   11   48 1
    12   12   49 1
    13   13   49 1
    14   14   50 1
    15   15   51 1
    16   16   53 1
    17   17   53 1
    18   18   53 1
    19   19   54 1
    20   20   54 1
    21   21   54 1
    22   22   55 1
    23   23   55 1
    24   24   55 1
    25   25   56 1
    26   26   56 1
    27   27   56 1
    28   28   57 1
    29   29   57 1
    30   30   57 1
    31   31   58 1
    32   32   61 1
    33   33   40 1
    34   33   41 1
    35   34   39 1
    36   34   40 2
    37   35   37 ar
    38   35   42 ar
    39   36   38 ar
    40   36   42 ar
    41   37   43 ar
    42   38   43 ar
    43   39   44 2
    44   40   46 1
    45   41   44 1
    46   41   59 2
    47   42   58 1
    48   43   61 1
    49   44   60 1
    50   45   59 1
    51   45   60 2
    52   45   61 1
    53   46   62 1
    54   46   63 2
    55   47   50 1
    56   47   51 1
    57   48   50 1
    58   48   52 1
    59   49   51 1
    60   49   52 1
    61   50   53 1
    62   51   60 1
    63   52   54 1
    64   52   55 1
    65   56   58 1
    66   57   58 1
    67   33   64 1
