@<TRIPOS>MOLECULE
****
   55    58     0     0     0
SMALL
NO_CHARGES

@<TRIPOS>ATOM
      1 H1         26.5870  -11.7680   11.6370 H         1 <0>         0.0000
      2 H2         21.6500  -18.6490    5.2260 H         1 <0>         0.0000
      3 H3         19.9970  -18.3530    6.9490 H         1 <0>         0.0000
      4 H4         26.0920   -9.8380   10.2870 H         1 <0>         0.0000
      5 H5         25.1960  -13.7310   11.4900 H         1 <0>         0.0000
      6 H6         27.1670  -13.2580    0.6830 H         1 <0>         0.0000
      7 H7         23.2100  -16.8980    4.7400 H         1 <0>         0.0000
      8 H8         19.9060  -16.2900    8.1760 H         1 <0>         0.0000
      9 H9         24.2110   -9.8600    8.7840 H         1 <0>         0.0000
     10 H10        23.3160  -13.7530    9.9920 H         1 <0>         0.0000
     11 H11        25.3620  -13.7960    2.1820 H         1 <0>         0.0000
     12 H12        29.0540  -11.9840    1.4710 H         1 <0>         0.0000
     13 H13        27.3100  -11.7450    5.2490 H         1 <0>         0.0000
     14 H14        30.5440   -7.3920    3.1370 H         1 <0>         0.0000
     15 H15        29.8960   -7.8840    4.5530 H         1 <0>         0.0000
     16 H16        31.3930   -8.3760    4.1250 H         1 <0>         0.0000
     17 H17        29.2160   -8.1160    1.6290 H         1 <0>         0.0000
     18 H18        28.9050   -9.7010    1.3840 H         1 <0>         0.0000
     19 H19        28.0300   -8.8560    2.4740 H         1 <0>         0.0000
     20 H20        21.5550  -11.7180    8.8430 H         1 <0>         0.0000
     21 H21        22.4810  -11.1210    7.6380 H         1 <0>         0.0000
     22 H22        24.7050  -12.4020    5.2480 H         1 <0>         0.0000
     23 C1         25.8040  -11.7810   11.0150 C.ar      1 <0>         0.0000
     24 C2         21.6120  -17.7920    5.7400 C.ar      1 <0>         0.0000
     25 C3         20.6460  -17.6200    6.7450 C.ar      1 <0>         0.0000
     26 C4         25.5140  -10.6510   10.2240 C.ar      1 <0>         0.0000
     27 C5         24.9920  -12.9280   10.9300 C.ar      1 <0>         0.0000
     28 C6         27.1960  -12.9440    1.6320 C.ar      1 <0>         0.0000
     29 C7         22.5260  -16.7610    5.4560 C.ar      1 <0>         0.0000
     30 C8         20.5950  -16.4140    7.4620 C.ar      1 <0>         0.0000
     31 C9         24.4120  -10.6630    9.3450 C.ar      1 <0>         0.0000
     32 C10        23.8920  -12.9380   10.0530 C.ar      1 <0>         0.0000
     33 C11        26.1380  -13.2570    2.5100 C.ar      1 <0>         0.0000
     34 C12        28.2950  -12.1890    2.0890 C.ar      1 <0>         0.0000
     35 C13        27.2740  -12.0520    4.2980 C.ar      1 <0>         0.0000
     36 C14        22.4980  -15.5280    6.1650 C.ar      1 <0>         0.0000
     37 C15        21.5110  -15.3730    7.1830 C.ar      1 <0>         0.0000
     38 C16        23.5930  -11.8090    9.2580 C.ar      1 <0>         0.0000
     39 C17        26.1690  -12.8130    3.8520 C.ar      1 <0>         0.0000
     40 C18        28.3230  -11.7220    3.4210 C.ar      1 <0>         0.0000
     41 C19        23.4260  -14.3660    5.9340 C.2       1 <0>         0.0000
     42 C20        21.4260  -14.0900    7.9690 C.2       1 <0>         0.0000
     43 C21        24.5300  -14.3690    4.9090 C.2       1 <0>         0.0000
     44 C22        30.4800   -8.1500    3.7860 C.3       1 <0>         0.0000
     45 C23        28.9360   -8.9710    2.0670 C.3       1 <0>         0.0000
     46 C24        22.3950  -11.8500    8.3170 C.3       1 <0>         0.0000
     47 N1         23.3050  -13.2920    6.6510 N.2       1 <0>         0.0000
     48 N2         22.3430  -13.1470    7.6340 N.am      1 <0>         0.0000
     49 N3         25.0940  -13.1540    4.7160 N.am      1 <0>         0.0000
     50 N4         29.9020   -9.3230    3.1150 N.pl3     1 <0>         0.0000
     51 O1         20.5790  -13.9390    8.8500 O.2       1 <0>         0.0000
     52 O2         24.9030  -15.3750    4.3060 O.2       1 <0>         0.0000
     53 O3         29.2940  -10.2830    5.3970 O.2       1 <0>         0.0000
     54 O4         30.9280  -11.5660    3.9380 O.2       1 <0>         0.0000
     55 S1         29.7010  -10.7630    4.0690 S.o2      1 <0>         0.0000
@<TRIPOS>BOND
     1    1   23 1
     2    2   24 1
     3    3   25 1
     4    4   26 1
     5    5   27 1
     6    6   28 1
     7    7   29 1
     8    8   30 1
     9    9   31 1
    10   10   32 1
    11   11   33 1
    12   12   34 1
    13   13   35 1
    14   14   44 1
    15   15   44 1
    16   16   44 1
    17   17   45 1
    18   18   45 1
    19   19   45 1
    20   20   46 1
    21   21   46 1
    22   22   49 1
    23   23   26 ar
    24   23   27 ar
    25   24   25 ar
    26   24   29 ar
    27   25   30 ar
    28   26   31 ar
    29   27   32 ar
    30   28   33 ar
    31   28   34 ar
    32   29   36 ar
    33   30   37 ar
    34   31   38 ar
    35   32   38 ar
    36   33   39 ar
    37   34   40 ar
    38   35   39 ar
    39   35   40 ar
    40   36   37 ar
    41   36   41 1
    42   37   42 1
    43   38   46 1
    44   39   49 1
    45   40   55 1
    46   41   43 1
    47   41   47 2
    48   42   48 am
    49   42   51 2
    50   43   49 am
    51   43   52 2
    52   44   50 1
    53   45   50 1
    54   46   48 1
    55   47   48 1
    56   50   55 1
    57   53   55 2
    58   54   55 2
