@<TRIPOS>MOLECULE
****
   57    60     0     0     0
SMALL
NO_CHARGES

@<TRIPOS>ATOM
      1 H1         48.2420   12.0560  -38.7300 H         1 <0>         0.0000
      2 H2         48.0730   12.9260  -40.9750 H         1 <0>         0.0000
      3 H3         50.8080    3.0800  -36.1150 H         1 <0>         0.0000
      4 H4         50.0400    8.5800  -40.2000 H         1 <0>         0.0000
      5 H5         52.8010    4.0480  -35.1800 H         1 <0>         0.0000
      6 H6         47.3240   10.4310  -37.2660 H         1 <0>         0.0000
      7 H7         51.0990    8.8820  -38.0530 H         1 <0>         0.0000
      8 H8         45.6590    3.4320  -35.6110 H         1 <0>         0.0000
      9 H9         45.2990    4.3140  -36.9360 H         1 <0>         0.0000
     10 H10        46.9100    5.1890  -34.9690 H         1 <0>         0.0000
     11 H11        50.0930    9.7120  -43.6790 H         1 <0>         0.0000
     12 H12        51.1650    9.0300  -42.6540 H         1 <0>         0.0000
     13 H13        49.7140    8.3250  -42.9050 H         1 <0>         0.0000
     14 H14        48.8900   10.2410  -32.9790 H         1 <0>         0.0000
     15 H15        49.7830    9.3220  -31.9660 H         1 <0>         0.0000
     16 H16        50.5050   10.1260  -33.1900 H         1 <0>         0.0000
     17 H17        48.1390    5.7470  -38.4100 H         1 <0>         0.0000
     18 H18        46.5480    5.8980  -38.7450 H         1 <0>         0.0000
     19 H19        47.4840    7.2300  -38.6060 H         1 <0>         0.0000
     20 H20        45.5730    7.2410  -35.4520 H         1 <0>         0.0000
     21 H21        45.8870    8.1590  -36.7660 H         1 <0>         0.0000
     22 H22        44.9510    6.8280  -36.9050 H         1 <0>         0.0000
     23 H23        48.6470    7.9170  -33.5720 H         1 <0>         0.0000
     24 H24        47.7620    6.8980  -36.3500 H         1 <0>         0.0000
     25 H25        51.4080    7.8580  -33.1430 H         1 <0>         0.0000
     26 C1         48.5620   11.5110  -39.5050 C.ar      1 <0>         0.0000
     27 C2         48.4880   12.0310  -40.8090 C.ar      1 <0>         0.0000
     28 C3         50.7690    3.9660  -35.6520 C.ar      1 <0>         0.0000
     29 C4         49.6330    9.4780  -40.3640 C.ar      1 <0>         0.0000
     30 C5         51.9260    4.5230  -35.0880 C.ar      1 <0>         0.0000
     31 C6         48.1440    9.9360  -36.9770 C.ar      1 <0>         0.0000
     32 C7         50.3290    9.0390  -37.4350 C.ar      1 <0>         0.0000
     33 C8         49.0900   10.2160  -39.2890 C.ar      1 <0>         0.0000
     34 C9         49.1780    9.7000  -37.8940 C.ar      1 <0>         0.0000
     35 C10        49.6000   10.0090  -41.6650 C.ar      1 <0>         0.0000
     36 C11        49.0060   11.2750  -41.8800 C.ar      1 <0>         0.0000
     37 C12        49.5500    4.6680  -35.5600 C.ar      1 <0>         0.0000
     38 C13        49.3780    8.8830  -35.2800 C.ar      1 <0>         0.0000
     39 C14        50.7060    6.3660  -34.3390 C.ar      1 <0>         0.0000
     40 C15        48.0970    3.0930  -36.8590 C.2       1 <0>         0.0000
     41 C16        46.0410    3.9090  -36.4020 C.3       1 <0>         0.0000
     42 C17        47.0430    5.0070  -35.9430 C.3       1 <0>         0.0000
     43 C18        50.1950    9.1980  -42.8270 C.3       1 <0>         0.0000
     44 C19        49.6810    9.6330  -32.9110 C.3       1 <0>         0.0000
     45 C20        47.3230    6.3050  -38.2610 C.3       1 <0>         0.0000
     46 C21        45.7410    7.2260  -36.4380 C.3       1 <0>         0.0000
     47 C22        49.4740    8.4150  -33.8330 C.3       1 <0>         0.0000
     48 C23        47.0080    6.3670  -36.7360 C.3       1 <0>         0.0000
     49 N1         48.2520    9.4960  -35.7000 N.ar      1 <0>         0.0000
     50 N2         50.3880    8.6170  -36.1520 N.ar      1 <0>         0.0000
     51 N3         51.8680    5.7000  -34.4190 N.ar      1 <0>         0.0000
     52 N4         49.5770    5.8320  -34.8770 N.ar      1 <0>         0.0000
     53 N5         48.2920    4.2420  -36.1290 N.am      1 <0>         0.0000
     54 N6         50.6390    7.5590  -33.7080 N.pl3     1 <0>         0.0000
     55 O1         48.9030    2.2460  -37.2160 O.2       1 <0>         0.0000
     56 O2         46.8070    3.0030  -37.2130 O.3       1 <0>         0.0000
     57 F1         48.9580   11.7990  -43.0970 F         1 <0>         0.0000
@<TRIPOS>BOND
     1    1   26 1
     2    2   27 1
     3    3   28 1
     4    4   29 1
     5    5   30 1
     6    6   31 1
     7    7   32 1
     8    8   41 1
     9    9   41 1
    10   10   42 1
    11   11   43 1
    12   12   43 1
    13   13   43 1
    14   14   44 1
    15   15   44 1
    16   16   44 1
    17   17   45 1
    18   18   45 1
    19   19   45 1
    20   20   46 1
    21   21   46 1
    22   22   46 1
    23   23   47 1
    24   24   48 1
    25   25   54 1
    26   26   27 ar
    27   26   33 ar
    28   27   36 ar
    29   28   30 ar
    30   28   37 ar
    31   29   33 ar
    32   29   35 ar
    33   30   51 ar
    34   31   34 ar
    35   31   49 ar
    36   32   34 ar
    37   32   50 ar
    38   33   34 1
    39   35   36 ar
    40   35   43 1
    41   36   57 1
    42   37   52 ar
    43   37   53 1
    44   38   47 1
    45   38   49 ar
    46   38   50 ar
    47   39   51 ar
    48   39   52 ar
    49   39   54 1
    50   40   53 am
    51   40   55 2
    52   40   56 1
    53   41   42 1
    54   41   56 1
    55   42   48 1
    56   42   53 1
    57   44   47 1
    58   45   48 1
    59   46   48 1
    60   47   54 1
