@<TRIPOS>MOLECULE
****
   57    60     0     0     0
SMALL
NO_CHARGES

@<TRIPOS>ATOM
      1 H1         33.3460   18.0920   40.2830 H         1 <0>         0.0000
      2 H2         23.7210   17.3930   43.9240 H         1 <0>         0.0000
      3 H3         29.5400   17.7260   38.6590 H         1 <0>         0.0000
      4 H4         29.0220   15.9330   43.1810 H         1 <0>         0.0000
      5 H5         34.2290   18.3040   38.0630 H         1 <0>         0.0000
      6 H6         24.4110   15.2550   44.7910 H         1 <0>         0.0000
      7 H7         31.7570   19.5030   41.6780 H         1 <0>         0.0000
      8 H8         25.2190   22.2750   44.2340 H         1 <0>         0.0000
      9 H9         25.8870   22.4650   42.7560 H         1 <0>         0.0000
     10 H10        26.7670   20.6720   44.5520 H         1 <0>         0.0000
     11 H11        29.9250   15.6290   39.6990 H         1 <0>         0.0000
     12 H12        29.8960   14.6480   41.0050 H         1 <0>         0.0000
     13 H13        28.5610   15.4890   40.5850 H         1 <0>         0.0000
     14 H14        31.4230   18.1770   45.9470 H         1 <0>         0.0000
     15 H15        30.4550   17.4550   47.0460 H         1 <0>         0.0000
     16 H16        31.1490   16.5700   45.8620 H         1 <0>         0.0000
     17 H17        28.9990   21.3690   43.7490 H         1 <0>         0.0000
     18 H18        29.3650   21.3470   42.1580 H         1 <0>         0.0000
     19 H19        28.2700   22.4150   42.7290 H         1 <0>         0.0000
     20 H20        29.1140   18.6000   45.4020 H         1 <0>         0.0000
     21 H21        27.8890   19.5420   42.6540 H         1 <0>         0.0000
     22 H22        28.8170   15.7980   45.8280 H         1 <0>         0.0000
     23 C1         32.7330   18.0540   39.4940 C.ar      1 <0>         0.0000
     24 C2         24.6660   17.2420   44.2130 C.ar      1 <0>         0.0000
     25 C3         30.5280   17.8410   38.5530 C.ar      1 <0>         0.0000
     26 C4         29.5980   16.6780   42.8440 C.ar      1 <0>         0.0000
     27 C5         33.2460   18.1800   38.2000 C.ar      1 <0>         0.0000
     28 C6         25.0700   16.0030   44.7180 C.ar      1 <0>         0.0000
     29 C7         31.1780   18.7450   41.9800 C.ar      1 <0>         0.0000
     30 C8         31.3580   17.8750   39.6800 C.ar      1 <0>         0.0000
     31 C9         30.8260   17.7440   41.0650 C.ar      1 <0>         0.0000
     32 C10        30.0170   16.6780   41.5100 C.ar      1 <0>         0.0000
     33 C11        31.0880   17.9690   37.2780 C.ar      1 <0>         0.0000
     34 C12        29.9740   17.7060   43.7130 C.ar      1 <0>         0.0000
     35 C13        25.6170   18.2670   44.1210 C.ar      1 <0>         0.0000
     36 C14        27.2470   16.8170   45.0130 C.ar      1 <0>         0.0000
     37 C15        24.1460   19.9910   43.1280 C.2       1 <0>         0.0000
     38 C16        25.4450   21.8160   43.3750 C.3       1 <0>         0.0000
     39 C17        26.3690   20.6030   43.6370 C.3       1 <0>         0.0000
     40 C18        29.5600   15.5090   40.6220 C.3       1 <0>         0.0000
     41 C19        30.7450   17.4560   46.0890 C.3       1 <0>         0.0000
     42 C20        28.6340   21.4890   42.8260 C.3       1 <0>         0.0000
     43 C21        29.5190   17.7130   45.1790 C.3       1 <0>         0.0000
     44 C22        27.5020   20.4610   42.5800 C.3       1 <0>         0.0000
     45 C23        30.2070   17.9230   36.0310 C.3       1 <0>         0.0000
     46 N1         32.4200   18.1350   37.1350 N.ar      1 <0>         0.0000
     47 N2         30.7520   18.7080   43.2600 N.ar      1 <0>         0.0000
     48 N3         26.3470   15.8160   45.1060 N.ar      1 <0>         0.0000
     49 N4         26.8770   18.0180   44.5280 N.ar      1 <0>         0.0000
     50 N5         25.3360   19.5760   43.6260 N.am      1 <0>         0.0000
     51 N6         28.5350   16.6540   45.3940 N.pl3     1 <0>         0.0000
     52 O1         23.1020   19.3760   42.9890 O.2       1 <0>         0.0000
     53 O2         24.2640   21.2720   42.7710 O.3       1 <0>         0.0000
     54 F1         26.9980   20.6150   41.3260 F         1 <0>         0.0000
     55 F2         30.5180   18.9760   35.2280 F         1 <0>         0.0000
     56 F3         30.4440   16.7620   35.3630 F         1 <0>         0.0000
     57 F4         28.8880   17.9820   36.3630 F         1 <0>         0.0000
@<TRIPOS>BOND
     1    1   23 1
     2    2   24 1
     3    3   25 1
     4    4   26 1
     5    5   27 1
     6    6   28 1
     7    7   29 1
     8    8   38 1
     9    9   38 1
    10   10   39 1
    11   11   40 1
    12   12   40 1
    13   13   40 1
    14   14   41 1
    15   15   41 1
    16   16   41 1
    17   17   42 1
    18   18   42 1
    19   19   42 1
    20   20   43 1
    21   21   44 1
    22   22   51 1
    23   23   27 ar
    24   23   30 ar
    25   24   28 ar
    26   24   35 ar
    27   25   30 ar
    28   25   33 ar
    29   26   32 ar
    30   26   34 ar
    31   27   46 ar
    32   28   48 ar
    33   29   31 ar
    34   29   47 ar
    35   30   31 1
    36   31   32 ar
    37   32   40 1
    38   33   45 1
    39   33   46 ar
    40   34   43 1
    41   34   47 ar
    42   35   49 ar
    43   35   50 1
    44   36   48 ar
    45   36   49 ar
    46   36   51 1
    47   37   50 am
    48   37   52 2
    49   37   53 1
    50   38   39 1
    51   38   53 1
    52   39   44 1
    53   39   50 1
    54   41   43 1
    55   42   44 1
    56   43   51 1
    57   44   54 1
    58   45   55 1
    59   45   56 1
    60   45   57 1
