@<TRIPOS>MOLECULE
****
   54    56     0     0     0
SMALL
NO_CHARGES

@<TRIPOS>ATOM
      1 H1         69.3480   14.1910   17.5530 H         1 <0>         0.0000
      2 H2         67.0340   14.6300   18.0150 H         1 <0>         0.0000
      3 H3         70.0010   13.6170   15.3160 H         1 <0>         0.0000
      4 H4         65.3840   14.4530   16.3030 H         1 <0>         0.0000
      5 H5         59.9200   17.1070   10.6240 H         1 <0>         0.0000
      6 H6         59.3530   18.7570    9.0080 H         1 <0>         0.0000
      7 H7         65.1722   20.6998   12.1222 H         1 <0>         0.0000
      8 H8         67.8080   13.2620   12.4800 H         1 <0>         0.0000
      9 H9         69.2260   14.0050   12.7990 H         1 <0>         0.0000
     10 H10        69.0380   12.4200   13.1480 H         1 <0>         0.0000
     11 H11        66.7750   15.1840   11.7860 H         1 <0>         0.0000
     12 H12        65.4720   14.4350   11.1470 H         1 <0>         0.0000
     13 H13        65.5150   16.0650   11.2370 H         1 <0>         0.0000
     14 H14        66.5510   16.3860   14.0150 H         1 <0>         0.0000
     15 H15        65.2840   17.2210   13.4100 H         1 <0>         0.0000
     16 H16        65.1150   16.3680   14.7920 H         1 <0>         0.0000
     17 H17        64.7380   13.4640   14.2380 H         1 <0>         0.0000
     18 H18        65.8130   13.1820   13.0410 H         1 <0>         0.0000
     19 H19        63.1370   15.8040   11.0550 H         1 <0>         0.0000
     20 H20        63.9950   16.9180   11.8850 H         1 <0>         0.0000
     21 H21        62.0600   17.3490   13.2530 H         1 <0>         0.0000
     22 H22        62.7690   21.8690    9.1120 H         1 <0>         0.0000
     23 H23        63.2469   15.4137   13.8132 H         1 <0>         0.0000
     24 H24        59.8910   20.7420    7.8040 H         1 <0>         0.0000
     25 H25        61.3310   15.0620   12.1160 H         1 <0>         0.0000
     26 C1         68.6650   14.1260   16.8250 C.ar      1 <0>         0.0000
     27 C2         67.3130   14.3750   17.0890 C.ar      1 <0>         0.0000
     28 C3         69.0380   13.7860   15.5280 C.ar      1 <0>         0.0000
     29 C4         66.3430   14.2740   16.0840 C.ar      1 <0>         0.0000
     30 C5         60.5050   17.9100   10.5090 C.ar      1 <0>         0.0000
     31 C6         60.1820   18.8670    9.5560 C.ar      1 <0>         0.0000
     32 C7         68.0710   13.6780   14.5140 C.ar      1 <0>         0.0000
     33 C8         66.7010   13.9250   14.7770 C.ar      1 <0>         0.0000
     34 C9         61.6370   18.0610   11.3050 C.ar      1 <0>         0.0000
     35 C10        62.1130   20.1650   10.1520 C.ar      1 <0>         0.0000
     36 C11        62.4430   19.2160   11.1440 C.ar      1 <0>         0.0000
     37 C12        60.9950   19.9760    9.3530 C.ar      1 <0>         0.0000
     38 C13        64.0910   20.7810   11.9370 C.3       1 <0>         0.0000
     39 C14        63.9400   21.6170   10.8220 C.2       1 <0>         0.0000
     40 C15        68.5800   13.3090   13.1130 C.3       1 <0>         0.0000
     41 C16        65.7800   15.2150   11.6920 C.3       1 <0>         0.0000
     42 C17        65.5580   16.3910   13.8960 C.3       1 <0>         0.0000
     43 C18        65.5390   13.8230   13.7580 C.3       1 <0>         0.0000
     44 C19        63.2650   16.2380   11.9470 C.3       1 <0>         0.0000
     45 C20        61.9630   16.9460   12.3430 C.3       1 <0>         0.0000
     46 C21        65.1330   15.1550   13.0800 C.3       1 <0>         0.0000
     47 N1         62.9230   21.2980    9.9190 N.am      1 <0>         0.0000
     48 N2         63.6610   15.2020   12.9280 N.4       1 <0>         0.0000
     49 O1         63.5640   19.4090   11.9340 O.3       1 <0>         0.0000
     50 O2         60.6980   20.8760    8.3790 O.3       1 <0>         0.0000
     51 O3         60.9380   15.9480   12.3620 O.3       1 <0>         0.0000
     52 O4         64.6780   22.5890   10.6300 O.2       1 <0>         0.0000
     53 H26        63.6120   21.2976   12.7818 H         1 <0>         0.0000
     54 H27        63.3356   14.3106   12.6124 H         1 <0>         0.0000
@<TRIPOS>BOND
     1    1   26 1
     2    2   27 1
     3    3   28 1
     4    4   29 1
     5    5   30 1
     6    6   31 1
     7    7   38 1
     8    8   40 1
     9    9   40 1
    10   10   40 1
    11   11   41 1
    12   12   41 1
    13   13   41 1
    14   14   42 1
    15   15   42 1
    16   16   42 1
    17   17   43 1
    18   18   43 1
    19   19   44 1
    20   20   44 1
    21   21   45 1
    22   22   47 1
    23   23   48 1
    24   24   50 1
    25   25   51 1
    26   26   27 ar
    27   26   28 ar
    28   27   29 ar
    29   28   32 ar
    30   29   33 ar
    31   30   31 ar
    32   30   34 ar
    33   31   37 ar
    34   32   33 ar
    35   32   40 1
    36   33   43 1
    37   34   36 ar
    38   34   45 1
    39   35   36 ar
    40   35   37 ar
    41   35   47 1
    42   36   49 1
    43   37   50 1
    44   38   39 1
    45   38   49 1
    46   39   47 am
    47   39   52 2
    48   41   46 1
    49   42   46 1
    50   43   46 1
    51   44   45 1
    52   44   48 1
    53   45   51 1
    54   46   48 1
    55   38   53 1
    56   48   54 1
