@<TRIPOS>MOLECULE
****
   60    62     0     0     0
SMALL
NO_CHARGES

@<TRIPOS>ATOM
      1 H1         16.4860    8.4030   12.0240 H         1 <0>         0.0000
      2 H2         12.6340    8.4940    6.9560 H         1 <0>         0.0000
      3 H3         20.6070    6.7680   10.2080 H         1 <0>         0.0000
      4 H4         11.3040   10.3880    6.3310 H         1 <0>         0.0000
      5 H5         21.4700    5.3280   11.8710 H         1 <0>         0.0000
      6 H6         15.3260    7.9510   14.0780 H         1 <0>         0.0000
      7 H7         15.9240   10.1930    5.0820 H         1 <0>         0.0000
      8 H8         15.4000   12.9930    2.4750 H         1 <0>         0.0000
      9 H9         15.5960   11.3890    2.7130 H         1 <0>         0.0000
     10 H10        14.1130   11.9910    2.3900 H         1 <0>         0.0000
     11 H11        14.8200    7.1620    6.1000 H         1 <0>         0.0000
     12 H12        16.1540    8.1040    6.0850 H         1 <0>         0.0000
     13 H13         9.6590   12.6510    4.3040 H         1 <0>         0.0000
     14 H14         9.7830   12.6070    2.6770 H         1 <0>         0.0000
     15 H15        14.5960    8.4890    8.3720 H         1 <0>         0.0000
     16 H16        15.1640    6.9630    8.2560 H         1 <0>         0.0000
     17 H17        17.8720    6.8120    8.7160 H         1 <0>         0.0000
     18 H18        16.7650    6.9370    9.9100 H         1 <0>         0.0000
     19 H19        12.1640   12.0360    3.0360 H         1 <0>         0.0000
     20 H20        11.7450   13.5800    3.3580 H         1 <0>         0.0000
     21 H21        10.4780   10.3520    4.3290 H         1 <0>         0.0000
     22 H22         8.9940   10.5240    3.6710 H         1 <0>         0.0000
     23 H23        17.9060    9.0110   10.5670 H         1 <0>         0.0000
     24 H24        18.2810    5.3830   15.3230 H         1 <0>         0.0000
     25 H25        17.1572    8.5868    7.6933 H         1 <0>         0.0000
     26 H26        21.3240    4.2270   13.9660 H         1 <0>         0.0000
     27 H27        19.5710    8.0870    8.5490 H         1 <0>         0.0000
     28 C1         16.8700    7.7690   12.6950 C.2       1 <0>         0.0000
     29 C2         13.0430    9.2430    6.4340 C.ar      1 <0>         0.0000
     30 C3         20.0890    6.6450   11.0550 C.ar      1 <0>         0.0000
     31 C4         12.2680   10.3450    6.0670 C.ar      1 <0>         0.0000
     32 C5         20.5940    5.7810   12.0340 C.ar      1 <0>         0.0000
     33 C6         16.2020    7.5060   13.8930 C.2       1 <0>         0.0000
     34 C7         14.9590   10.2320    5.3410 C.ar      1 <0>         0.0000
     35 C8         18.0830    7.1280   12.4570 C.ar      1 <0>         0.0000
     36 C9         14.3900    9.1880    6.0710 C.ar      1 <0>         0.0000
     37 C10        18.8860    7.3430   11.2170 C.ar      1 <0>         0.0000
     38 C11        18.6150    6.2040   13.4950 C.ar      1 <0>         0.0000
     39 C12        19.9180    5.5290   13.2300 C.ar      1 <0>         0.0000
     40 C13        12.8380   11.3870    5.3320 C.ar      1 <0>         0.0000
     41 C14        14.1820   11.3310    4.9720 C.ar      1 <0>         0.0000
     42 C15        16.7440    6.6270   14.8390 C.2       1 <0>         0.0000
     43 C16        14.9820   12.1660    2.8520 C.3       1 <0>         0.0000
     44 C17        15.2340    7.9980    6.4610 C.3       1 <0>         0.0000
     45 C18        10.1530   12.2480    3.5340 C.3       1 <0>         0.0000
     46 C19        15.3120    7.9120    7.9790 C.3       1 <0>         0.0000
     47 C20        17.3770    7.4490    9.3060 C.3       1 <0>         0.0000
     48 C21        11.6260   12.6270    3.6360 C.3       1 <0>         0.0000
     49 C22         9.9650   10.7350    3.5610 C.3       1 <0>         0.0000
     50 C23        18.3740    8.2330   10.1480 C.3       1 <0>         0.0000
     51 N1         17.9200    6.0040   14.6270 N.am      1 <0>         0.0000
     52 N2         16.5950    8.3510    8.4860 N.4       1 <0>         0.0000
     53 O1         16.1230    6.4180   15.9040 O.2       1 <0>         0.0000
     54 O2         20.4490    4.6750   14.1480 O.3       1 <0>         0.0000
     55 O3         19.4330    8.7180    9.3130 O.3       1 <0>         0.0000
     56 O4         14.7510   12.3450    4.2480 O.3       1 <0>         0.0000
     57 O5         12.0680   12.4660    4.9820 O.3       1 <0>         0.0000
     58 S1         10.5490   10.0240    2.0570 S.3       1 <0>         0.0000
     59 H28        16.4279    9.1718    9.0322 H         1 <0>         0.0000
     60 H29        10.3172    8.7592    2.2480 H         1 <0>         0.0000
@<TRIPOS>BOND
     1    1   28 1
     2    2   29 1
     3    3   30 1
     4    4   31 1
     5    5   32 1
     6    6   33 1
     7    7   34 1
     8    8   43 1
     9    9   43 1
    10   10   43 1
    11   11   44 1
    12   12   44 1
    13   13   45 1
    14   14   45 1
    15   15   46 1
    16   16   46 1
    17   17   47 1
    18   18   47 1
    19   19   48 1
    20   20   48 1
    21   21   49 1
    22   22   49 1
    23   23   50 1
    24   24   51 1
    25   25   52 1
    26   26   54 1
    27   27   55 1
    28   28   33 2
    29   28   35 1
    30   29   31 ar
    31   29   36 ar
    32   30   32 ar
    33   30   37 ar
    34   31   40 ar
    35   32   39 ar
    36   33   42 1
    37   34   36 ar
    38   34   41 ar
    39   35   37 ar
    40   35   38 ar
    41   36   44 1
    42   37   50 1
    43   38   39 ar
    44   38   51 1
    45   39   54 1
    46   40   41 ar
    47   40   57 1
    48   41   56 1
    49   42   51 am
    50   42   53 2
    51   43   56 1
    52   44   46 1
    53   45   48 1
    54   45   49 1
    55   46   52 1
    56   47   50 1
    57   47   52 1
    58   48   57 1
    59   49   58 1
    60   50   55 1
    61   52   59 1
    62   58   60 1
