@<TRIPOS>MOLECULE
****
   54    56     0     0     0
SMALL
NO_CHARGES

@<TRIPOS>ATOM
      1 H1         21.7110   10.4920  -16.7740 H         1 <0>         0.0000
      2 H2         20.8020   11.3220  -14.7230 H         1 <0>         0.0000
      3 H3         23.1420    8.5800  -16.7530 H         1 <0>         0.0000
      4 H4         21.3410   10.2460  -12.6610 H         1 <0>         0.0000
      5 H5         20.3930    5.1750   -6.5300 H         1 <0>         0.0000
      6 H6         19.4560    3.2280   -5.5060 H         1 <0>         0.0000
      7 H7         16.9680    3.9050  -11.8090 H         1 <0>         0.0000
      8 H8         16.3600    4.7280  -10.5360 H         1 <0>         0.0000
      9 H9         24.0960    6.7590  -13.7750 H         1 <0>         0.0000
     10 H10        23.5650    6.3750  -15.2710 H         1 <0>         0.0000
     11 H11        24.8630    7.3490  -15.0900 H         1 <0>         0.0000
     12 H12        22.2300    5.7150  -13.3650 H         1 <0>         0.0000
     13 H13        23.1960    5.4330  -12.0790 H         1 <0>         0.0000
     14 H14        21.6320    4.9650  -12.0440 H         1 <0>         0.0000
     15 H15        20.4140    7.4380  -13.2010 H         1 <0>         0.0000
     16 H16        19.8290    6.6490  -11.8960 H         1 <0>         0.0000
     17 H17        20.1900    8.2380  -11.7950 H         1 <0>         0.0000
     18 H18        22.8830    8.8030  -11.4740 H         1 <0>         0.0000
     19 H19        23.7770    7.6880  -12.2650 H         1 <0>         0.0000
     20 H20        22.0440    5.5040   -8.8860 H         1 <0>         0.0000
     21 H21        21.3170    4.9920  -10.2560 H         1 <0>         0.0000
     22 H22        19.4320    6.4080   -9.7330 H         1 <0>         0.0000
     23 H23        17.2320    1.1680   -9.0690 H         1 <0>         0.0000
     24 H24        21.4571    7.7057   -9.9688 H         1 <0>         0.0000
     25 H25        17.2380    0.9190   -7.1230 H         1 <0>         0.0000
     26 H26        21.1260    7.0110   -7.6100 H         1 <0>         0.0000
     27 C1         21.9300   10.0400  -15.9090 C.ar      1 <0>         0.0000
     28 C2         21.4030   10.5230  -14.7180 C.ar      1 <0>         0.0000
     29 C3         22.7620    8.9280  -15.8960 C.ar      1 <0>         0.0000
     30 C4         21.7130    9.8930  -13.5190 C.ar      1 <0>         0.0000
     31 C5         19.7840    4.5780   -7.0530 C.ar      1 <0>         0.0000
     32 C6         19.2370    3.4470   -6.4570 C.ar      1 <0>         0.0000
     33 C7         23.0690    8.2970  -14.6960 C.ar      1 <0>         0.0000
     34 C8         22.5390    8.7730  -13.5060 C.ar      1 <0>         0.0000
     35 C9         19.4830    4.8770   -8.3760 C.ar      1 <0>         0.0000
     36 C10        18.0860    2.9320   -8.4960 C.ar      1 <0>         0.0000
     37 C11        18.6280    4.0530   -9.0820 C.ar      1 <0>         0.0000
     38 C12        18.3860    2.6210   -7.1820 C.ar      1 <0>         0.0000
     39 C13        16.5110    2.6910  -10.1950 C.2       1 <0>         0.0000
     40 C14        16.9780    3.9920  -10.8130 C.3       1 <0>         0.0000
     41 C15        23.9740    7.0940  -14.7090 C.3       1 <0>         0.0000
     42 C16        22.2670    5.6660  -12.3670 C.3       1 <0>         0.0000
     43 C17        20.4550    7.3650  -12.2040 C.3       1 <0>         0.0000
     44 C18        22.8700    8.1030  -12.1880 C.3       1 <0>         0.0000
     45 C19        21.4120    5.7570   -9.6190 C.3       1 <0>         0.0000
     46 C20        20.0500    6.0820   -9.0180 C.3       1 <0>         0.0000
     47 C21        21.8760    7.0150  -11.7780 C.3       1 <0>         0.0000
     48 N1         17.2690    2.1530   -9.2380 N.am      1 <0>         0.0000
     49 N2         21.9400    6.9080  -10.3300 N.4       1 <0>         0.0000
     50 O1         15.4730    2.1740  -10.5770 O.2       1 <0>         0.0000
     51 O2         18.3010    4.3030  -10.3830 O.3       1 <0>         0.0000
     52 O3         17.8500    1.5120   -6.6000 O.3       1 <0>         0.0000
     53 O4         20.2190    7.0960   -8.0220 O.3       1 <0>         0.0000
     54 H27        22.9084    6.9666  -10.0876 H         1 <0>         0.0000
@<TRIPOS>BOND
     1    1   27 1
     2    2   28 1
     3    3   29 1
     4    4   30 1
     5    5   31 1
     6    6   32 1
     7    7   40 1
     8    8   40 1
     9    9   41 1
    10   10   41 1
    11   11   41 1
    12   12   42 1
    13   13   42 1
    14   14   42 1
    15   15   43 1
    16   16   43 1
    17   17   43 1
    18   18   44 1
    19   19   44 1
    20   20   45 1
    21   21   45 1
    22   22   46 1
    23   23   48 1
    24   24   49 1
    25   25   52 1
    26   26   53 1
    27   27   28 ar
    28   27   29 ar
    29   28   30 ar
    30   29   33 ar
    31   30   34 ar
    32   31   32 ar
    33   31   35 ar
    34   32   38 ar
    35   33   34 ar
    36   33   41 1
    37   34   44 1
    38   35   37 ar
    39   35   46 1
    40   36   37 ar
    41   36   38 ar
    42   36   48 1
    43   37   51 1
    44   38   52 1
    45   39   40 1
    46   39   48 am
    47   39   50 2
    48   40   51 1
    49   42   47 1
    50   43   47 1
    51   44   47 1
    52   45   46 1
    53   45   49 1
    54   46   53 1
    55   47   49 1
    56   49   54 1
