@<TRIPOS>MOLECULE
****
   51    52     0     0     0
SMALL
NO_CHARGES

@<TRIPOS>ATOM
      1 H1          5.3670  -22.5490  -54.7820 H         1 <0>         0.0000
      2 H2          2.4810  -22.6200  -46.1920 H         1 <0>         0.0000
      3 H3          7.2970  -22.5940  -56.2000 H         1 <0>         0.0000
      4 H4          0.3800  -23.3640  -45.3180 H         1 <0>         0.0000
      5 H5          7.6610  -20.9030  -51.7460 H         1 <0>         0.0000
      6 H6          0.6260  -21.2150  -49.6210 H         1 <0>         0.0000
      7 H7         11.0031  -23.8450  -56.6564 H         1 <0>         0.0000
      8 H8         11.5789  -22.3059  -57.3806 H         1 <0>         0.0000
      9 H9         10.8460  -20.1070  -51.4850 H         1 <0>         0.0000
     10 H10         9.2880  -19.6410  -51.6340 H         1 <0>         0.0000
     11 H11         9.6440  -21.1550  -51.1370 H         1 <0>         0.0000
     12 H12         4.8770  -20.7290  -52.2980 H         1 <0>         0.0000
     13 H13         4.5830  -22.3230  -52.4990 H         1 <0>         0.0000
     14 H14         9.2470  -21.5680  -57.4610 H         1 <0>         0.0000
     15 H15         8.7290  -22.9620  -56.7870 H         1 <0>         0.0000
     16 H16         6.0840  -22.8830  -50.7920 H         1 <0>         0.0000
     17 H17         6.6090  -21.3400  -50.6880 H         1 <0>         0.0000
     18 H18         3.6270  -23.2640  -49.3380 H         1 <0>         0.0000
     19 H19         2.9630  -22.2330  -50.4150 H         1 <0>         0.0000
     20 H20         2.8390  -20.5350  -48.7970 H         1 <0>         0.0000
     21 H21         5.3244  -21.8309  -48.9287 H         1 <0>         0.0000
     22 H22        -2.0390  -23.5560  -45.6530 H         1 <0>         0.0000
     23 H23        -2.6650  -22.2660  -48.4920 H         1 <0>         0.0000
     24 H24         4.1600  -22.2860  -47.0580 H         1 <0>         0.0000
     25 C1          6.2480  -22.2190  -54.4420 C.ar      1 <0>         0.0000
     26 C2          1.6470  -22.4900  -46.7280 C.ar      1 <0>         0.0000
     27 C3          7.3690  -22.2420  -55.2670 C.ar      1 <0>         0.0000
     28 C4          0.4310  -22.9200  -46.2130 C.ar      1 <0>         0.0000
     29 C5          7.5840  -21.2580  -52.6780 C.ar      1 <0>         0.0000
     30 C6          0.5780  -21.6680  -48.7310 C.ar      1 <0>         0.0000
     31 C7          6.3590  -21.7330  -53.1380 C.ar      1 <0>         0.0000
     32 C8          1.7240  -21.8820  -47.9770 C.ar      1 <0>         0.0000
     33 C9         -0.7100  -22.7180  -46.9720 C.ar      1 <0>         0.0000
     34 C10         8.5870  -21.7750  -54.7910 C.ar      1 <0>         0.0000
     35 C11        -0.6380  -22.1000  -48.2160 C.ar      1 <0>         0.0000
     36 C12         8.6930  -21.2740  -53.5010 C.ar      1 <0>         0.0000
     37 C13        10.7450  -23.0220  -57.3390 C.3       1 <0>         0.0000
     38 C14         9.9250  -20.4050  -51.7350 C.3       1 <0>         0.0000
     39 C15         5.2770  -21.6450  -52.2570 C.3       1 <0>         0.0000
     40 C16         9.4850  -22.3090  -56.8330 C.3       1 <0>         0.0000
     41 C17         5.8110  -21.9220  -50.8440 C.3       1 <0>         0.0000
     42 C18         3.5300  -22.3030  -49.5950 C.3       1 <0>         0.0000
     43 C19         2.9650  -21.4610  -48.4410 C.3       1 <0>         0.0000
     44 N1          4.8300  -21.6600  -49.7810 N.4       1 <0>         0.0000
     45 O1         -1.9390  -23.1080  -46.5420 O.3       1 <0>         0.0000
     46 O2         -1.8080  -21.9430  -48.8930 O.3       1 <0>         0.0000
     47 O3          3.9410  -21.3690  -47.3910 O.3       1 <0>         0.0000
     48 O4          9.9210  -20.8530  -53.0970 O.3       1 <0>         0.0000
     49 O5          9.7290  -21.7700  -55.5310 O.3       1 <0>         0.0000
     50 H25        10.5579  -23.4259  -58.3449 H         1 <0>         0.0000
     51 H26         4.6244  -20.6843  -49.8572 H         1 <0>         0.0000
@<TRIPOS>BOND
     1    1   25 1
     2    2   26 1
     3    3   27 1
     4    4   28 1
     5    5   29 1
     6    6   30 1
     7    7   37 1
     8    8   37 1
     9    9   38 1
    10   10   38 1
    11   11   38 1
    12   12   39 1
    13   13   39 1
    14   14   40 1
    15   15   40 1
    16   16   41 1
    17   17   41 1
    18   18   42 1
    19   19   42 1
    20   20   43 1
    21   21   44 1
    22   22   45 1
    23   23   46 1
    24   24   47 1
    25   25   27 ar
    26   25   31 ar
    27   26   28 ar
    28   26   32 ar
    29   27   34 ar
    30   28   33 ar
    31   29   31 ar
    32   29   36 ar
    33   30   32 ar
    34   30   35 ar
    35   31   39 1
    36   32   43 1
    37   33   35 ar
    38   33   45 1
    39   34   36 ar
    40   34   49 1
    41   35   46 1
    42   36   48 1
    43   37   40 1
    44   38   48 1
    45   39   41 1
    46   40   49 1
    47   41   44 1
    48   42   43 1
    49   42   44 1
    50   43   47 1
    51   37   50 1
    52   44   51 1
