@<TRIPOS>MOLECULE
****
   68    69     0     0     0
SMALL
NO_CHARGES

@<TRIPOS>ATOM
      1 H1         -4.5280    2.0090   43.9620 H         1 <0>         0.0000
      2 H2         -6.3600    2.0220   42.4260 H         1 <0>         0.0000
      3 H3         -3.4420   -0.0490   44.5010 H         1 <0>         0.0000
      4 H4         -7.0950   -0.0190   41.4230 H         1 <0>         0.0000
      5 H5         -4.1770   -2.0910   43.5020 H         1 <0>         0.0000
      6 H6        -14.4270   -6.1940   34.4400 H         1 <0>         0.0000
      7 H7        -13.5230   -6.3010   32.2250 H         1 <0>         0.0000
      8 H8        -11.0060   -4.2420   35.7300 H         1 <0>         0.0000
      9 H9         -6.9260   -2.2450   41.2340 H         1 <0>         0.0000
     10 H10        -5.3890   -2.7960   41.2420 H         1 <0>         0.0000
     11 H11        -9.7570   -3.7940   32.5170 H         1 <0>         0.0000
     12 H12        -9.5210   -3.5070   34.1080 H         1 <0>         0.0000
     13 H13        -6.6730   -4.3130   42.4990 H         1 <0>         0.0000
     14 H14        -5.7270   -3.4980   43.5510 H         1 <0>         0.0000
     15 H15       -11.1480   -7.9750   41.6790 H         1 <0>         0.0000
     16 H16       -12.3020   -7.9460   42.8340 H         1 <0>         0.0000
     17 H17       -10.3390   -5.9030   42.2970 H         1 <0>         0.0000
     18 H18       -11.6730   -5.5690   43.1790 H         1 <0>         0.0000
     19 H19       -13.5780   -7.3700   41.0850 H         1 <0>         0.0000
     20 H20       -13.0670   -5.8780   41.5070 H         1 <0>         0.0000
     21 H21        -7.5330   -2.0740   44.1180 H         1 <0>         0.0000
     22 H22        -8.4810   -2.7980   43.0030 H         1 <0>         0.0000
     23 H23       -11.0450   -7.2900   44.7400 H         1 <0>         0.0000
     24 H24        -9.6860   -7.5580   43.8760 H         1 <0>         0.0000
     25 H25       -11.3390   -5.9890   39.8840 H         1 <0>         0.0000
     26 H26       -11.7920   -7.5070   39.4870 H         1 <0>         0.0000
     27 H27       -12.4160   -6.9490   37.0970 H         1 <0>         0.0000
     28 H28       -11.5460   -5.6380   37.5330 H         1 <0>         0.0000
     29 H29        -7.3570   -4.2600   45.2240 H         1 <0>         0.0000
     30 H30        -8.8420   -3.5850   45.3020 H         1 <0>         0.0000
     31 H31       -10.3320   -5.0650   45.1970 H         1 <0>         0.0000
     32 H32        -9.1840   -6.1120   45.6990 H         1 <0>         0.0000
     33 H33       -13.3200   -4.2040   36.8690 H         1 <0>         0.0000
     34 H34       -13.8776   -6.6556   38.7860 H         1 <0>         0.0000
     35 H35       -11.6960   -5.7990   30.7050 H         1 <0>         0.0000
     36 H36        -8.3350   -5.3360   32.5850 H         1 <0>         0.0000
     37 H37       -14.6250   -6.6520   36.6970 H         1 <0>         0.0000
     38 C1         -4.8380    1.1550   43.5450 C.ar      1 <0>         0.0000
     39 C2         -5.9020    1.1620   42.6510 C.ar      1 <0>         0.0000
     40 C3         -4.2070   -0.0420   43.8570 C.ar      1 <0>         0.0000
     41 C4         -6.3310   -0.0270   42.0680 C.ar      1 <0>         0.0000
     42 C5         -4.6350   -1.2310   43.2760 C.ar      1 <0>         0.0000
     43 C6        -13.5250   -5.8080   34.2460 C.ar      1 <0>         0.0000
     44 C7        -13.0000   -5.8710   32.9610 C.ar      1 <0>         0.0000
     45 C8        -11.5310   -4.6710   34.9950 C.ar      1 <0>         0.0000
     46 C9         -5.6990   -1.2260   42.3810 C.ar      1 <0>         0.0000
     47 C10       -12.7910   -5.2060   35.2600 C.ar      1 <0>         0.0000
     48 C11       -11.0040   -4.7340   33.7100 C.ar      1 <0>         0.0000
     49 C12       -11.7480   -5.3350   32.7040 C.ar      1 <0>         0.0000
     50 C13        -6.1240   -2.4180   41.8050 C.3       1 <0>         0.0000
     51 C14        -9.7510   -4.2050   33.4290 C.3       1 <0>         0.0000
     52 C15        -6.4890   -3.4200   42.9090 C.3       1 <0>         0.0000
     53 C16       -11.7970   -7.3940   42.1700 C.3       1 <0>         0.0000
     54 C17       -11.0340   -6.2880   42.9050 C.3       1 <0>         0.0000
     55 C18       -12.7790   -6.7750   41.1730 C.3       1 <0>         0.0000
     56 C19        -7.7360   -2.9370   43.6560 C.3       1 <0>         0.0000
     57 C20       -10.3570   -6.8690   44.1490 C.3       1 <0>         0.0000
     58 C21       -12.1150   -6.6140   39.8000 C.3       1 <0>         0.0000
     59 C22       -12.4670   -6.0230   37.4700 C.3       1 <0>         0.0000
     60 C23        -8.1560   -3.9800   44.6910 C.3       1 <0>         0.0000
     61 C24        -9.6560   -5.7400   44.9000 C.3       1 <0>         0.0000
     62 C25       -13.3190   -5.1490   36.5420 C.3       1 <0>         0.0000
     63 N1        -13.0660   -6.0720   38.8120 N.4       1 <0>         0.0000
     64 O1        -11.1960   -5.3750   31.4610 O.3       1 <0>         0.0000
     65 O2         -8.7830   -5.2560   33.4750 O.3       1 <0>         0.0000
     66 O3        -14.6500   -5.6650   36.5410 O.3       1 <0>         0.0000
     67 O4         -8.7080   -5.1180   44.0300 O.3       1 <0>         0.0000
     68 H38       -13.3293   -5.1470   39.0858 H         1 <0>         0.0000
@<TRIPOS>BOND
     1    1   38 1
     2    2   39 1
     3    3   40 1
     4    4   41 1
     5    5   42 1
     6    6   43 1
     7    7   44 1
     8    8   45 1
     9    9   50 1
    10   10   50 1
    11   11   51 1
    12   12   51 1
    13   13   52 1
    14   14   52 1
    15   15   53 1
    16   16   53 1
    17   17   54 1
    18   18   54 1
    19   19   55 1
    20   20   55 1
    21   21   56 1
    22   22   56 1
    23   23   57 1
    24   24   57 1
    25   25   58 1
    26   26   58 1
    27   27   59 1
    28   28   59 1
    29   29   60 1
    30   30   60 1
    31   31   61 1
    32   32   61 1
    33   33   62 1
    34   34   63 1
    35   35   64 1
    36   36   65 1
    37   37   66 1
    38   38   39 ar
    39   38   40 ar
    40   39   41 ar
    41   40   42 ar
    42   41   46 ar
    43   42   46 ar
    44   43   44 ar
    45   43   47 ar
    46   44   49 ar
    47   45   47 ar
    48   45   48 ar
    49   46   50 1
    50   47   62 1
    51   48   49 ar
    52   48   51 1
    53   49   64 1
    54   50   52 1
    55   51   65 1
    56   52   56 1
    57   53   54 1
    58   53   55 1
    59   54   57 1
    60   55   58 1
    61   56   60 1
    62   57   61 1
    63   58   63 1
    64   59   62 1
    65   59   63 1
    66   60   67 1
    67   61   67 1
    68   62   66 1
    69   63   68 1
