@<TRIPOS>MOLECULE
****
   43    46     0     0     0
SMALL
NO_CHARGES

@<TRIPOS>ATOM
      1 H1        -15.3520   12.5620   37.4770 H         1 <0>         0.0000
      2 H2        -11.8010   10.9400   38.7540 H         1 <0>         0.0000
      3 H3        -10.6280   15.7810   40.1580 H         1 <0>         0.0000
      4 H4        -11.8520   13.7580   43.5250 H         1 <0>         0.0000
      5 H5        -15.4270   10.9920   35.6970 H         1 <0>         0.0000
      6 H6        -11.8690    9.3750   36.9860 H         1 <0>         0.0000
      7 H7         -8.8960   16.8190   41.4220 H         1 <0>         0.0000
      8 H8        -10.0890   14.7360   44.7400 H         1 <0>         0.0000
      9 H9        -15.2760   10.4690   40.2570 H         1 <0>         0.0000
     10 H10       -16.6910   14.2230   41.2260 H         1 <0>         0.0000
     11 H11       -17.4150    9.6220   40.7820 H         1 <0>         0.0000
     12 H12       -18.7910   13.2390   41.7100 H         1 <0>         0.0000
     13 H13        -7.2020   15.0980   45.3690 H         1 <0>         0.0000
     14 H14        -6.1860   16.3440   45.0850 H         1 <0>         0.0000
     15 H15        -7.3190   16.4650   46.2550 H         1 <0>         0.0000
     16 H16       -14.2020   14.3530   42.1600 H         1 <0>         0.0000
     17 C1        -14.6220   11.8850   37.3820 C.ar      1 <0>         0.0000
     18 C2        -12.5730   10.9480   38.1180 C.ar      1 <0>         0.0000
     19 C3        -10.5340   15.5730   41.1320 C.ar      1 <0>         0.0000
     20 C4        -11.2350   14.3990   43.0680 C.ar      1 <0>         0.0000
     21 C5        -14.6710   10.9760   36.3520 C.ar      1 <0>         0.0000
     22 C6        -12.6080   10.0390   37.1000 C.ar      1 <0>         0.0000
     23 C7         -9.5200   16.1780   41.8690 C.ar      1 <0>         0.0000
     24 C8        -10.2160   14.9850   43.7800 C.ar      1 <0>         0.0000
     25 C9        -15.9960   11.0900   40.5670 C.ar      1 <0>         0.0000
     26 C10       -16.8120   13.2360   41.1220 C.ar      1 <0>         0.0000
     27 C11       -17.2620   10.6060   40.8780 C.ar      1 <0>         0.0000
     28 C12       -18.0460   12.6460   41.4050 C.ar      1 <0>         0.0000
     29 C13       -13.5780   11.8760   38.2880 C.ar      1 <0>         0.0000
     30 C14       -11.4170   14.6840   41.7310 C.ar      1 <0>         0.0000
     31 C15       -15.7510   12.4420   40.6940 C.ar      1 <0>         0.0000
     32 C16       -13.6740   10.0510   36.2350 C.ar      1 <0>         0.0000
     33 C17        -9.3690   15.9000   43.2120 C.ar      1 <0>         0.0000
     34 C18       -13.5270   12.7880   39.4470 C.2       1 <0>         0.0000
     35 C19       -14.4120   13.0090   40.4400 C.2       1 <0>         0.0000
     36 C20       -12.5420   14.0610   40.9510 C.2       1 <0>         0.0000
     37 C21        -7.1180   16.0940   45.3480 C.3       1 <0>         0.0000
     38 N1        -18.2890   11.3480   41.2940 N.ar      1 <0>         0.0000
     39 N2        -12.3530   13.5720   39.7460 N.2       1 <0>         0.0000
     40 N3        -13.7810   13.9180   41.3640 N.pl3     1 <0>         0.0000
     41 O1         -8.3020   18.2160   43.9820 O.2       1 <0>         0.0000
     42 F1        -13.8960    9.0150   35.4600 F         1 <0>         0.0000
     43 S1         -8.2360   16.7430   44.1980 S.o       1 <0>         0.0000
@<TRIPOS>BOND
     1    1   17 1
     2    2   18 1
     3    3   19 1
     4    4   20 1
     5    5   21 1
     6    6   22 1
     7    7   23 1
     8    8   24 1
     9    9   25 1
    10   10   26 1
    11   11   27 1
    12   12   28 1
    13   13   37 1
    14   14   37 1
    15   15   37 1
    16   16   40 1
    17   17   21 ar
    18   17   29 ar
    19   18   22 ar
    20   18   29 ar
    21   19   23 ar
    22   19   30 ar
    23   20   24 ar
    24   20   30 ar
    25   21   32 ar
    26   22   32 ar
    27   23   33 ar
    28   24   33 ar
    29   25   27 ar
    30   25   31 ar
    31   26   28 ar
    32   26   31 ar
    33   27   38 ar
    34   28   38 ar
    35   29   34 1
    36   30   36 1
    37   31   35 1
    38   32   42 1
    39   33   43 1
    40   34   35 2
    41   34   39 1
    42   35   40 1
    43   36   39 2
    44   36   40 1
    45   37   43 1
    46   41   43 2
