@<TRIPOS>MOLECULE
****
   26    28     0     0     0
SMALL
NO_CHARGES

@<TRIPOS>ATOM
      1 H1        -14.0480   11.3700   39.6190 H         1 <0>         0.0000
      2 H2        -18.0750   12.5980   41.9090 H         1 <0>         0.0000
      3 H3        -16.4230   16.7870   42.9570 H         1 <0>         0.0000
      4 H4        -12.6000   17.9060   41.7720 H         1 <0>         0.0000
      5 H5        -16.7110    8.8230   39.7390 H         1 <0>         0.0000
      6 H6        -15.5910   18.9340   43.5310 H         1 <0>         0.0000
      7 H7        -18.1540    9.2740   40.4700 H         1 <0>         0.0000
      8 C1        -14.8870   11.6290   40.0970 C.ar      1 <0>         0.0000
      9 C2        -17.2380   12.3330   41.4310 C.ar      1 <0>         0.0000
     10 C3        -15.5620   16.5770   42.4930 C.ar      1 <0>         0.0000
     11 C4        -13.3310   17.2240   41.7980 C.ar      1 <0>         0.0000
     12 C5        -15.0190   12.8920   40.6890 C.ar      1 <0>         0.0000
     13 C6        -14.1550   15.0400   41.2220 C.ar      1 <0>         0.0000
     14 C7        -13.9820   13.8480   40.6360 C.2       1 <0>         0.0000
     15 C8        -16.1800   13.2140   41.3420 C.ar      1 <0>         0.0000
     16 C9        -15.3790   15.3500   41.8920 C.ar      1 <0>         0.0000
     17 C10       -16.0180   10.6970   40.1990 C.ar      1 <0>         0.0000
     18 C11       -14.5420   17.5210   42.4500 C.ar      1 <0>         0.0000
     19 C12       -17.1270   11.0260   40.8280 C.ar      1 <0>         0.0000
     20 C13       -13.1440   15.9790   41.1850 C.ar      1 <0>         0.0000
     21 O1        -12.9250   13.6110   40.0480 O.2       1 <0>         0.0000
     22 O2        -16.3400   14.4700   41.9420 O.3       1 <0>         0.0000
     23 O3        -15.9360    9.4510   39.6650 O.3       1 <0>         0.0000
     24 O4        -14.7260   18.7340   43.0710 O.3       1 <0>         0.0000
     25 O5        -18.2080   10.1840   40.8810 O.3       1 <0>         0.0000
     26 O6        -11.9580   15.6770   40.5560 O.3       1 <0>         0.0000
@<TRIPOS>BOND
     1    1    8 1
     2    2    9 1
     3    3   10 1
     4    4   11 1
     5    5   23 1
     6    6   24 1
     7    7   25 1
     8    8   12 ar
     9    8   17 ar
    10    9   15 ar
    11    9   19 ar
    12   10   16 ar
    13   10   18 ar
    14   11   18 ar
    15   11   20 ar
    16   12   14 1
    17   12   15 ar
    18   13   14 1
    19   13   16 ar
    20   13   20 ar
    21   14   21 2
    22   15   22 1
    23   16   22 1
    24   17   19 ar
    25   17   23 1
    26   18   24 1
    27   19   25 1
    28   20   26 1
