@<TRIPOS>MOLECULE
****
   32    34     0     0     0
SMALL
NO_CHARGES

@<TRIPOS>ATOM
      1 H1         15.9550  -12.6560    3.5240 H         1 <0>         0.0000
      2 H2         12.6870   -8.2800    0.2790 H         1 <0>         0.0000
      3 H3         20.7260  -10.9670   -2.0410 H         1 <0>         0.0000
      4 H4         21.6630  -12.2090   -1.5430 H         1 <0>         0.0000
      5 H5         19.7780  -13.6710   -1.6390 H         1 <0>         0.0000
      6 H6         20.0300  -12.9900   -3.1020 H         1 <0>         0.0000
      7 H7         20.9700  -10.8910    0.3310 H         1 <0>         0.0000
      8 H8         20.3610  -12.4010    0.4470 H         1 <0>         0.0000
      9 H9         17.7110  -12.8650   -2.5440 H         1 <0>         0.0000
     10 H10        18.3380  -11.3600   -2.6250 H         1 <0>         0.0000
     11 H11        18.8940  -10.1190   -0.5610 H         1 <0>         0.0000
     12 H12        18.6510  -10.7980    0.9040 H         1 <0>         0.0000
     13 H13        17.9840  -12.8390   -0.1610 H         1 <0>         0.0000
     14 H14        16.1490  -11.1080   -1.4530 H         1 <0>         0.0000
     15 C1         15.6560  -12.0620    2.7770 C.2       1 <0>         0.0000
     16 C2         13.2920   -8.9890    0.6410 C.2       1 <0>         0.0000
     17 C3         15.9290  -11.3600    0.5940 C.cat     1 <0>         0.0000
     18 C4         14.2210  -10.4330    2.0160 C.cat     1 <0>         0.0000
     19 C5         14.8620  -10.4690    0.7660 C.cat     1 <0>         0.0000
     20 C6         20.7410  -11.8230   -1.5240 C.3       1 <0>         0.0000
     21 C7         19.7630  -12.8140   -2.1540 C.3       1 <0>         0.0000
     22 C8         20.3350  -11.5480   -0.0740 C.3       1 <0>         0.0000
     23 C9         18.3520  -12.2240   -2.1220 C.3       1 <0>         0.0000
     24 C10        18.9190  -10.9740   -0.0430 C.3       1 <0>         0.0000
     25 C11        17.9500  -11.9780   -0.6690 C.3       1 <0>         0.0000
     26 N1         14.6490  -11.2390    2.9830 N.2       1 <0>         0.0000
     27 N2         16.2850  -12.1290    1.6180 N.pl3     1 <0>         0.0000
     28 N3         14.2450   -9.5630   -0.0310 N.2       1 <0>         0.0000
     29 N4         13.2330   -9.4880    1.9060 N.pl3     1 <0>         0.0000
     30 N5         16.5930  -11.4300   -0.6170 N.pl3     1 <0>         0.0000
     31 H15        17.0440  -12.7708    1.5085 H         1 <0>         0.0000
     32 H16        12.5895   -9.2163    2.6216 H         1 <0>         0.0000
@<TRIPOS>BOND
     1    1   15 1
     2    2   16 1
     3    3   20 1
     4    4   20 1
     5    5   21 1
     6    6   21 1
     7    7   22 1
     8    8   22 1
     9    9   23 1
    10   10   23 1
    11   11   24 1
    12   12   24 1
    13   13   25 1
    14   14   30 1
    15   15   26 2
    16   15   27 1
    17   16   28 2
    18   16   29 1
    19   17   19 1
    20   17   27 2
    21   17   30 1
    22   18   19 1
    23   18   26 1
    24   18   29 2
    25   19   28 1
    26   20   21 1
    27   20   22 1
    28   21   23 1
    29   22   24 1
    30   23   25 1
    31   24   25 1
    32   25   30 1
    33   27   31 1
    34   29   32 1
