@<TRIPOS>MOLECULE
****
   38    41     0     0     0
SMALL
NO_CHARGES

@<TRIPOS>ATOM
      1 H1         -1.7680   10.8550   18.5020 H         1 <0>         0.0000
      2 H2         -5.4800   11.1540   16.6690 H         1 <0>         0.0000
      3 H3         -2.7190   11.9000   20.4260 H         1 <0>         0.0000
      4 H4         -6.3000   12.2020   18.6400 H         1 <0>         0.0000
      5 H5         -4.8710    9.4850   15.6390 H         1 <0>         0.0000
      6 H6          2.6440    9.8000   12.9480 H         1 <0>         0.0000
      7 H7          0.5180    8.5570   12.3280 H         1 <0>         0.0000
      8 H8          0.8100   10.8630   16.5130 H         1 <0>         0.0000
      9 H9          5.2100   10.5250   19.5990 H         1 <0>         0.0000
     10 H10         5.6200   11.7710   18.6260 H         1 <0>         0.0000
     11 H11         4.2810   11.8680   19.5560 H         1 <0>         0.0000
     12 H12         3.2580   10.1230   18.2650 H         1 <0>         0.0000
     13 H13         4.5970   10.0270   17.3350 H         1 <0>         0.0000
     14 H14         2.8180   12.3130   17.4700 H         1 <0>         0.0000
     15 H15         4.2160   12.3170   16.6270 H         1 <0>         0.0000
     16 C1         -2.7290   11.1320   18.5050 C.ar      1 <0>         0.0000
     17 C2         -4.8720   11.3080   17.4480 C.ar      1 <0>         0.0000
     18 C3         -3.2850   11.7390   19.6180 C.ar      1 <0>         0.0000
     19 C4         -5.3440   11.9110   18.5940 C.ar      1 <0>         0.0000
     20 C5         -3.9070    9.5380   15.3780 C.ar      1 <0>         0.0000
     21 C6         -3.5340   10.9150   17.3890 C.ar      1 <0>         0.0000
     22 C7         -3.0140   10.2600   16.1700 C.ar      1 <0>         0.0000
     23 C8         -1.3100    9.7020   14.7450 C.ar      1 <0>         0.0000
     24 C9         -2.2170    8.9840   13.9300 C.ar      1 <0>         0.0000
     25 C10         2.4930   10.1630   13.8670 C.2       1 <0>         0.0000
     26 C11        -0.2000    8.8190   12.9730 C.2       1 <0>         0.0000
     27 C12         1.4890   10.7310   15.7910 C.2       1 <0>         0.0000
     28 C13        -0.0080    9.5820   14.0840 C.2       1 <0>         0.0000
     29 C14         1.2730   10.1530   14.5690 C.2       1 <0>         0.0000
     30 C15         4.8560   11.2550   19.0140 C.3       1 <0>         0.0000
     31 C16         4.0200   10.6400   17.8740 C.3       1 <0>         0.0000
     32 C17         3.4680   11.7460   16.9640 C.3       1 <0>         0.0000
     33 N1         -4.5560   12.1090   19.6270 N.ar      1 <0>         0.0000
     34 N2         -3.4890    8.9240   14.2850 N.ar      1 <0>         0.0000
     35 N3         -1.7290   10.3170   15.8440 N.ar      1 <0>         0.0000
     36 N4          3.3930   10.7290   14.6260 N.2       1 <0>         0.0000
     37 N5         -1.5180    8.4620   12.8670 N.2       1 <0>         0.0000
     38 N6          2.7930   11.0900   15.8400 N.pl3     1 <0>         0.0000
@<TRIPOS>BOND
     1    1   16 1
     2    2   17 1
     3    3   18 1
     4    4   19 1
     5    5   20 1
     6    6   25 1
     7    7   26 1
     8    8   27 1
     9    9   30 1
    10   10   30 1
    11   11   30 1
    12   12   31 1
    13   13   31 1
    14   14   32 1
    15   15   32 1
    16   16   18 ar
    17   16   21 ar
    18   17   19 ar
    19   17   21 ar
    20   18   33 ar
    21   19   33 ar
    22   20   22 ar
    23   20   34 ar
    24   21   22 1
    25   22   35 ar
    26   23   24 ar
    27   23   28 1
    28   23   35 ar
    29   24   34 ar
    30   24   37 1
    31   25   29 1
    32   25   36 2
    33   26   28 1
    34   26   37 2
    35   27   29 1
    36   27   38 2
    37   28   29 2
    38   30   31 1
    39   31   32 1
    40   32   38 1
    41   36   38 1
