@<TRIPOS>MOLECULE
****
   53    56     0     0     0
SMALL
NO_CHARGES

@<TRIPOS>ATOM
      1 H1        -12.3390  -38.1900  -22.2960 H         1 <0>         0.0000
      2 H2        -13.6710  -39.6090  -20.9000 H         1 <0>         0.0000
      3 H3        -16.3310  -32.6980  -26.7580 H         1 <0>         0.0000
      4 H4        -14.4290  -36.8500  -26.1110 H         1 <0>         0.0000
      5 H5        -15.0140  -32.8480  -25.0530 H         1 <0>         0.0000
      6 H6        -14.0210  -34.8370  -20.5220 H         1 <0>         0.0000
      7 H7        -17.5560  -32.7150  -28.8300 H         1 <0>         0.0000
      8 H8        -12.9990  -37.1000  -24.2850 H         1 <0>         0.0000
      9 H9        -17.7550  -39.4350  -29.7880 H         1 <0>         0.0000
     10 H10       -16.7920  -39.1190  -31.0680 H         1 <0>         0.0000
     11 H11       -14.4360  -38.0290  -30.5440 H         1 <0>         0.0000
     12 H12       -14.1510  -37.5400  -29.0120 H         1 <0>         0.0000
     13 H13       -16.3130  -41.0590  -28.9880 H         1 <0>         0.0000
     14 H14       -16.4470  -41.3570  -30.5880 H         1 <0>         0.0000
     15 H15       -13.0230  -39.6210  -29.4560 H         1 <0>         0.0000
     16 H16       -14.1350  -39.8160  -28.2760 H         1 <0>         0.0000
     17 H17       -16.2550  -38.3990  -28.3210 H         1 <0>         0.0000
     18 H18       -10.8910  -36.8040  -23.1800 H         1 <0>         0.0000
     19 H19       -10.4630  -35.2460  -23.4210 H         1 <0>         0.0000
     20 H20       -12.2030  -34.5800  -21.9190 H         1 <0>         0.0000
     21 H21       -17.2100  -36.8620  -30.5090 H         1 <0>         0.0000
     22 H22        -9.7040  -35.0130  -21.4170 H         1 <0>         0.0000
     23 C1        -12.9610  -37.7870  -21.6250 C.ar      1 <0>         0.0000
     24 C2        -13.7410  -38.6140  -20.8250 C.ar      1 <0>         0.0000
     25 C3        -16.3940  -33.5250  -27.3170 C.ar      1 <0>         0.0000
     26 C4        -14.2550  -36.0750  -25.5030 C.2       1 <0>         0.0000
     27 C5        -14.6020  -33.7440  -24.8880 C.2       1 <0>         0.0000
     28 C6        -13.9410  -35.8310  -20.5970 C.ar      1 <0>         0.0000
     29 C7        -17.1120  -33.5500  -28.5050 C.ar      1 <0>         0.0000
     30 C8        -13.4290  -36.2120  -24.4480 C.2       1 <0>         0.0000
     31 C9        -14.8770  -34.8200  -25.7460 C.2       1 <0>         0.0000
     32 C10       -13.0400  -36.3920  -21.4980 C.ar      1 <0>         0.0000
     33 C11       -14.7300  -36.6540  -19.8010 C.ar      1 <0>         0.0000
     34 C12       -14.6200  -38.0330  -19.9200 C.ar      1 <0>         0.0000
     35 C13       -15.7600  -34.7210  -26.9410 C.ar      1 <0>         0.0000
     36 C14       -13.7300  -33.9420  -23.7800 C.2       1 <0>         0.0000
     37 C15       -16.6190  -35.7980  -28.8410 C.ar      1 <0>         0.0000
     38 C16       -16.8070  -39.3560  -30.0970 C.3       1 <0>         0.0000
     39 C17       -14.5940  -38.2350  -29.5780 C.3       1 <0>         0.0000
     40 C18       -16.1020  -40.7150  -29.9030 C.3       1 <0>         0.0000
     41 C19       -14.0010  -39.6170  -29.2470 C.3       1 <0>         0.0000
     42 C20       -16.1110  -38.2330  -29.2960 C.3       1 <0>         0.0000
     43 C21       -10.8720  -35.8900  -22.7740 C.3       1 <0>         0.0000
     44 C22       -12.2920  -35.4440  -22.4140 C.3       1 <0>         0.0000
     45 N1        -17.2180  -34.6740  -29.2200 N.ar      1 <0>         0.0000
     46 N2        -15.9020  -35.8090  -27.7250 N.ar      1 <0>         0.0000
     47 N3        -13.1550  -35.1720  -23.5850 N.am      1 <0>         0.0000
     48 N4        -16.7100  -36.9340  -29.6460 N.pl3     1 <0>         0.0000
     49 O1        -13.5050  -32.9990  -23.0320 O.2       1 <0>         0.0000
     50 O2        -14.6690  -40.6150  -30.0410 O.3       1 <0>         0.0000
     51 O3        -10.1260  -35.9080  -21.5620 O.3       1 <0>         0.0000
     52 F1        -15.5990  -36.1360  -18.9040 F         1 <0>         0.0000
     53 Cl1       -15.6240  -39.0120  -18.9170 Cl        1 <0>         0.0000
@<TRIPOS>BOND
     1    1   23 1
     2    2   24 1
     3    3   25 1
     4    4   26 1
     5    5   27 1
     6    6   28 1
     7    7   29 1
     8    8   30 1
     9    9   38 1
    10   10   38 1
    11   11   39 1
    12   12   39 1
    13   13   40 1
    14   14   40 1
    15   15   41 1
    16   16   41 1
    17   17   42 1
    18   18   43 1
    19   19   43 1
    20   20   44 1
    21   21   48 1
    22   22   51 1
    23   23   24 ar
    24   23   32 ar
    25   24   34 ar
    26   25   29 ar
    27   25   35 ar
    28   26   30 2
    29   26   31 1
    30   27   31 2
    31   27   36 1
    32   28   32 ar
    33   28   33 ar
    34   29   45 ar
    35   30   47 1
    36   31   35 1
    37   32   44 1
    38   33   34 ar
    39   33   52 1
    40   34   53 1
    41   35   46 ar
    42   36   47 am
    43   36   49 2
    44   37   45 ar
    45   37   46 ar
    46   37   48 1
    47   38   40 1
    48   38   42 1
    49   39   41 1
    50   39   42 1
    51   40   50 1
    52   41   50 1
    53   42   48 1
    54   43   44 1
    55   43   51 1
    56   44   47 1
