@<TRIPOS>MOLECULE
****
   46    48     0     0     0
SMALL
NO_CHARGES

@<TRIPOS>ATOM
      1 H1        -12.5060   18.2090   42.0120 H         1 <0>         0.0000
      2 H2        -14.7890   18.1000   41.2660 H         1 <0>         0.0000
      3 H3        -11.1970   16.1880   42.1460 H         1 <0>         0.0000
      4 H4        -15.7620   16.0120   40.6530 H         1 <0>         0.0000
      5 H5        -16.5640   14.6600   42.1480 H         1 <0>         0.0000
      6 H6        -17.5070   10.2550   40.6550 H         1 <0>         0.0000
      7 H7        -18.2010   13.8210   45.5030 H         1 <0>         0.0000
      8 H8        -16.8760   14.1810   44.6190 H         1 <0>         0.0000
      9 H9        -20.5060   15.7850   43.4740 H         1 <0>         0.0000
     10 H10       -20.4670   14.7960   44.7730 H         1 <0>         0.0000
     11 H11       -16.9550   15.5560   46.5440 H         1 <0>         0.0000
     12 H12       -17.1120   16.4680   45.1990 H         1 <0>         0.0000
     13 H13       -19.1760   17.3630   44.6050 H         1 <0>         0.0000
     14 H14       -20.5010   17.0370   45.5020 H         1 <0>         0.0000
     15 H15       -18.1760   15.5630   43.1990 H         1 <0>         0.0000
     16 H16        -9.9860   12.4900   43.8630 H         1 <0>         0.0000
     17 H17       -10.9570   11.5600   42.9360 H         1 <0>         0.0000
     18 H18        -9.6920   12.3440   42.2630 H         1 <0>         0.0000
     19 H19       -14.0170   13.0640   40.0110 H         1 <0>         0.0000
     20 H20       -19.8030   13.3020   42.9470 H         1 <0>         0.0000
     21 H21       -11.3320   14.2590   43.3940 H         1 <0>         0.0000
     22 C1        -12.9080   17.3300   41.7550 C.ar      1 <0>         0.0000
     23 C2        -14.2430   17.2640   41.3190 C.ar      1 <0>         0.0000
     24 C3        -12.1440   16.1560   41.8270 C.ar      1 <0>         0.0000
     25 C4        -14.8110   16.0460   40.9600 C.ar      1 <0>         0.0000
     26 C5        -16.7400   13.7360   41.8090 C.ar      1 <0>         0.0000
     27 C6        -17.3400   11.2070   40.9110 C.ar      1 <0>         0.0000
     28 C7        -12.7330   14.9160   41.4400 C.ar      1 <0>         0.0000
     29 C8        -14.0590   14.8700   41.0270 C.ar      1 <0>         0.0000
     30 C9        -15.7950   13.0800   40.9840 C.ar      1 <0>         0.0000
     31 C10       -16.1670   11.8220   40.4970 C.ar      1 <0>         0.0000
     32 C11       -17.9430   13.0600   42.1470 C.ar      1 <0>         0.0000
     33 C12       -11.9360   13.6650   41.5650 C.2       1 <0>         0.0000
     34 C13       -17.7570   14.5230   44.9460 C.3       1 <0>         0.0000
     35 C14       -19.9580   15.4820   44.2540 C.3       1 <0>         0.0000
     36 C15       -17.5480   15.7710   45.7680 C.3       1 <0>         0.0000
     37 C16       -19.6450   16.6640   45.1450 C.3       1 <0>         0.0000
     38 C17       -18.6480   14.8800   43.7560 C.3       1 <0>         0.0000
     39 C18       -10.4070   12.3950   42.9610 C.3       1 <0>         0.0000
     40 N1        -18.2580   11.8580   41.6470 N.ar      1 <0>         0.0000
     41 N2        -14.5860   13.6140   40.6220 N.pl3     1 <0>         0.0000
     42 N3        -18.8820   13.6910   42.9350 N.pl3     1 <0>         0.0000
     43 N4        -11.2560   13.5420   42.7010 N.am      1 <0>         0.0000
     44 O1        -11.9670   12.7770   40.6580 O.2       1 <0>         0.0000
     45 O2        -18.7960   16.2800   46.2590 O.3       1 <0>         0.0000
     46 Cl1       -15.0590   10.9310   39.4970 Cl        1 <0>         0.0000
@<TRIPOS>BOND
     1    1   22 1
     2    2   23 1
     3    3   24 1
     4    4   25 1
     5    5   26 1
     6    6   27 1
     7    7   34 1
     8    8   34 1
     9    9   35 1
    10   10   35 1
    11   11   36 1
    12   12   36 1
    13   13   37 1
    14   14   37 1
    15   15   38 1
    16   16   39 1
    17   17   39 1
    18   18   39 1
    19   19   41 1
    20   20   42 1
    21   21   43 1
    22   22   23 ar
    23   22   24 ar
    24   23   25 ar
    25   24   28 ar
    26   25   29 ar
    27   26   30 ar
    28   26   32 ar
    29   27   31 ar
    30   27   40 ar
    31   28   29 ar
    32   28   33 1
    33   29   41 1
    34   30   31 ar
    35   30   41 1
    36   31   46 1
    37   32   40 ar
    38   32   42 1
    39   33   43 am
    40   33   44 2
    41   34   36 1
    42   34   38 1
    43   35   37 1
    44   35   38 1
    45   36   45 1
    46   37   45 1
    47   38   42 1
    48   39   43 1
