@<TRIPOS>MOLECULE
****
   38    41     0     0     0
SMALL
NO_CHARGES

@<TRIPOS>ATOM
      1 H1        -11.8112    1.0937   12.7854 H         1 <0>         0.0000
      2 H2        -16.7080    2.2860   16.9180 H         1 <0>         0.0000
      3 H3        -20.3310    1.5280   15.0580 H         1 <0>         0.0000
      4 H4        -13.2920    3.0470   16.2330 H         1 <0>         0.0000
      5 H5        -17.9040    3.3290   18.6650 H         1 <0>         0.0000
      6 H6        -21.4030    2.6200   16.8560 H         1 <0>         0.0000
      7 H7        -11.1010    3.2430   17.0410 H         1 <0>         0.0000
      8 H8        -15.5010    3.0670   14.7900 H         1 <0>         0.0000
      9 H9        -14.9960    1.7730   15.6480 H         1 <0>         0.0000
     10 H10       -14.4110   -0.3400   12.5770 H         1 <0>         0.0000
     11 H11       -15.2480    0.2490   11.3040 H         1 <0>         0.0000
     12 H12       -13.4700    1.7490   11.9330 H         1 <0>         0.0000
     13 H13       -14.9290    2.4640   12.0910 H         1 <0>         0.0000
     14 H14        -9.2860    2.5280   15.7920 H         1 <0>         0.0000
     15 C1        -11.6530    1.6040   13.7240 C.3       1 <0>         0.0000
     16 C2        -16.3730    1.3040   14.1990 C.3       1 <0>         0.0000
     17 C3        -17.7060    2.3430   16.8780 C.ar      1 <0>         0.0000
     18 C4        -19.7890    1.9100   15.8070 C.ar      1 <0>         0.0000
     19 C5        -12.5250    2.7030   15.6910 C.2       1 <0>         0.0000
     20 C6        -18.4160    2.9500   17.8940 C.ar      1 <0>         0.0000
     21 C7        -20.4060    2.5440   16.8680 C.ar      1 <0>         0.0000
     22 C8        -12.7590    2.0790   14.4280 C.2       1 <0>         0.0000
     23 C9        -10.3190    1.7700   14.2030 C.2       1 <0>         0.0000
     24 C10       -17.7200    1.1420   14.6690 C.2       1 <0>         0.0000
     25 C11       -16.2400    0.4660   13.1050 C.2       1 <0>         0.0000
     26 C12       -18.4020    1.8120   15.7980 C.ar      1 <0>         0.0000
     27 C13       -11.2610    2.8240   16.1470 C.cat     1 <0>         0.0000
     28 C14       -15.2300    2.1060   14.7350 C.3       1 <0>         0.0000
     29 C15       -15.0090    0.3980   12.2640 C.3       1 <0>         0.0000
     30 C16       -14.3310    1.7430   12.4410 C.3       1 <0>         0.0000
     31 N1        -19.7490    3.0610   17.9080 N.ar      1 <0>         0.0000
     32 N2        -18.3310    0.2400   13.9000 N.2       1 <0>         0.0000
     33 N3        -10.2040    2.3890   15.4190 N.am      1 <0>         0.0000
     34 N4        -17.4450   -0.1770   12.9630 N.2       1 <0>         0.0000
     35 N5        -14.0580    1.9870   13.8650 N.pl3     1 <0>         0.0000
     36 O1         -9.2910    1.4260   13.6000 O.2       1 <0>         0.0000
     37 H15       -11.6530    1.6040   13.7240 H         1 <0>         0.0000
     38 H16       -16.3730    1.3040   14.1990 H         1 <0>         0.0000
@<TRIPOS>BOND
     1    1   15 1
     2    2   17 1
     3    3   18 1
     4    4   19 1
     5    5   20 1
     6    6   21 1
     7    7   27 1
     8    8   28 1
     9    9   28 1
    10   10   29 1
    11   11   29 1
    12   12   30 1
    13   13   30 1
    14   14   33 1
    15   15   22 1
    16   15   23 1
    17   16   24 1
    18   16   25 1
    19   16   28 1
    20   17   20 ar
    21   17   26 ar
    22   18   21 ar
    23   18   26 ar
    24   19   22 2
    25   19   27 1
    26   20   31 ar
    27   21   31 ar
    28   22   35 1
    29   23   33 am
    30   23   36 2
    31   24   26 1
    32   24   32 2
    33   25   29 1
    34   25   34 2
    35   27   33 1
    36   28   35 1
    37   29   30 1
    38   30   35 1
    39   32   34 1
    40   15   37 1
    41   16   38 1
