@<TRIPOS>MOLECULE
****
   63    66     0     0     0
SMALL
NO_CHARGES

@<TRIPOS>ATOM
      1 H1          8.4740   10.1390   44.8340 H         1 <0>         0.0000
      2 H2          6.4390   11.3150   45.1310 H         1 <0>         0.0000
      3 H3          6.4220    6.5490   44.9360 H         1 <0>         0.0000
      4 H4         10.8580    4.9570   45.3170 H         1 <0>         0.0000
      5 H5          3.7740   10.6720   46.3150 H         1 <0>         0.0000
      6 H6          3.5280   10.6710   44.7000 H         1 <0>         0.0000
      7 H7         13.2390   10.6560   43.0270 H         1 <0>         0.0000
      8 H8         13.5730    9.8500   41.6460 H         1 <0>         0.0000
      9 H9         11.4790    8.8240   40.3440 H         1 <0>         0.0000
     10 H10        10.0170    9.0820   41.0250 H         1 <0>         0.0000
     11 H11        12.0160   12.2600   41.8210 H         1 <0>         0.0000
     12 H12        13.5300   12.1620   41.2160 H         1 <0>         0.0000
     13 H13        10.4420   10.6290   39.2670 H         1 <0>         0.0000
     14 H14        10.2380   11.3910   40.6970 H         1 <0>         0.0000
     15 H15        10.9830   10.1540   42.8500 H         1 <0>         0.0000
     16 H16        -0.3840    6.2900   49.9170 H         1 <0>         0.0000
     17 H17        -0.3480    6.1810   48.2880 H         1 <0>         0.0000
     18 H18         0.9760    6.6820   49.1020 H         1 <0>         0.0000
     19 H19        -0.3640    8.4870   51.0220 H         1 <0>         0.0000
     20 H20         0.9790    8.9310   50.2050 H         1 <0>         0.0000
     21 H21        -0.3600    9.8640   50.1430 H         1 <0>         0.0000
     22 H22        -2.3280    7.6620   49.8750 H         1 <0>         0.0000
     23 H23        -2.3950    9.0430   49.0050 H         1 <0>         0.0000
     24 H24        -2.3880    7.5980   48.2440 H         1 <0>         0.0000
     25 H25        -1.8220    9.5280   47.2280 H         1 <0>         0.0000
     26 H26        -0.5900   10.4020   46.6080 H         1 <0>         0.0000
     27 H27        -0.9790    8.9590   45.9500 H         1 <0>         0.0000
     28 H28         1.2440    8.1180   45.3160 H         1 <0>         0.0000
     29 H29         1.2620    9.7320   45.5640 H         1 <0>         0.0000
     30 H30        12.7660    7.9360   42.7130 H         1 <0>         0.0000
     31 C1          7.6190    9.6270   44.9190 C.ar      1 <0>         0.0000
     32 C2          6.4340   10.3150   45.1080 C.ar      1 <0>         0.0000
     33 C3          6.4330    7.5480   44.9850 C.ar      1 <0>         0.0000
     34 C4         10.5830    5.8320   44.9180 C.ar      1 <0>         0.0000
     35 C5          7.6460    8.2340   44.8450 C.ar      1 <0>         0.0000
     36 C6          5.2310    8.2470   45.1930 C.ar      1 <0>         0.0000
     37 C7          5.2390    9.6280   45.2660 C.ar      1 <0>         0.0000
     38 C8          9.3210    6.3250   45.2060 C.ar      1 <0>         0.0000
     39 C9          8.9520    7.5440   44.6410 C.ar      1 <0>         0.0000
     40 C10        11.0120    7.6510   43.6490 C.ar      1 <0>         0.0000
     41 C11         3.8380    7.7670   45.4140 C.2       1 <0>         0.0000
     42 C12         1.3210    8.6320   47.3360 C.2       1 <0>         0.0000
     43 C13         3.8410   10.1270   45.4790 C.3       1 <0>         0.0000
     44 C14        12.8970   10.4160   42.1180 C.3       1 <0>         0.0000
     45 C15        10.9350    9.4570   40.8950 C.3       1 <0>         0.0000
     46 C16        12.6610   11.6790   41.3240 C.3       1 <0>         0.0000
     47 C17        10.8330   10.7800   40.1750 C.3       1 <0>         0.0000
     48 C18        11.6020    9.6380   42.2580 C.3       1 <0>         0.0000
     49 C19        -0.0240    6.7000   49.0790 C.3       1 <0>         0.0000
     50 C20        -0.0210    8.9240   50.1900 C.3       1 <0>         0.0000
     51 C21        -2.0370    8.1090   49.0290 C.3       1 <0>         0.0000
     52 C22        -0.9180    9.4780   46.8030 C.3       1 <0>         0.0000
     53 C23         1.6530    8.8570   45.8510 C.3       1 <0>         0.0000
     54 C24        -0.5060    8.1470   48.9710 C.3       1 <0>         0.0000
     55 N1         11.4480    6.4760   44.1300 N.ar      1 <0>         0.0000
     56 N2          9.8080    8.2090   43.8710 N.ar      1 <0>         0.0000
     57 N3          3.0800    8.8800   45.5960 N.am      1 <0>         0.0000
     58 N4         11.8680    8.3440   42.8770 N.pl3     1 <0>         0.0000
     59 N5          0.0150    8.8110   47.7150 N.am      1 <0>         0.0000
     60 O1          3.4190    6.6200   45.4450 O.2       1 <0>         0.0000
     61 O2          2.1990    8.3050   48.1260 O.2       1 <0>         0.0000
     62 O3         12.1260   11.3920   40.0330 O.3       1 <0>         0.0000
     63 Cl1         8.2800    5.4130   46.2450 Cl        1 <0>         0.0000
@<TRIPOS>BOND
     1    1   31 1
     2    2   32 1
     3    3   33 1
     4    4   34 1
     5    5   43 1
     6    6   43 1
     7    7   44 1
     8    8   44 1
     9    9   45 1
    10   10   45 1
    11   11   46 1
    12   12   46 1
    13   13   47 1
    14   14   47 1
    15   15   48 1
    16   16   49 1
    17   17   49 1
    18   18   49 1
    19   19   50 1
    20   20   50 1
    21   21   50 1
    22   22   51 1
    23   23   51 1
    24   24   51 1
    25   25   52 1
    26   26   52 1
    27   27   52 1
    28   28   53 1
    29   29   53 1
    30   30   58 1
    31   31   32 ar
    32   31   35 ar
    33   32   37 ar
    34   33   35 ar
    35   33   36 ar
    36   34   38 ar
    37   34   55 ar
    38   35   39 1
    39   36   37 ar
    40   36   41 1
    41   37   43 1
    42   38   39 ar
    43   38   63 1
    44   39   56 ar
    45   40   55 ar
    46   40   56 ar
    47   40   58 1
    48   41   57 am
    49   41   60 2
    50   42   53 1
    51   42   59 am
    52   42   61 2
    53   43   57 1
    54   44   46 1
    55   44   48 1
    56   45   47 1
    57   45   48 1
    58   46   62 1
    59   47   62 1
    60   48   58 1
    61   49   54 1
    62   50   54 1
    63   51   54 1
    64   52   59 1
    65   53   57 1
    66   54   59 1
