@<TRIPOS>MOLECULE
****
   66    70     0     0     0
SMALL
NO_CHARGES

@<TRIPOS>ATOM
      1 H1         33.0000   -3.2750   27.3640 H         1 <0>         0.0000
      2 H2         30.3630   -0.3800   25.9880 H         1 <0>         0.0000
      3 H3         31.8090    1.5080   26.7750 H         1 <0>         0.0000
      4 H4         33.1490   -0.2530   30.3140 H         1 <0>         0.0000
      5 H5         28.1260   -3.8570   27.9700 H         1 <0>         0.0000
      6 H6         33.7650   -3.7020   25.1340 H         1 <0>         0.0000
      7 H7         31.0650   -0.8780   23.7220 H         1 <0>         0.0000
      8 H8         33.9700    2.5540   26.5400 H         1 <0>         0.0000
      9 H9         35.3150    0.8110   30.0930 H         1 <0>         0.0000
     10 H10        25.9900   -3.3240   27.0250 H         1 <0>         0.0000
     11 H11        26.9000    0.7330   27.4170 H         1 <0>         0.0000
     12 H12        33.5040   -4.8850   18.6410 H         1 <0>         0.0000
     13 H13        33.6680   -3.2610   18.7090 H         1 <0>         0.0000
     14 H14        32.0420   -2.1130   20.7390 H         1 <0>         0.0000
     15 H15        30.8410   -3.1990   20.9500 H         1 <0>         0.0000
     16 H16        31.9480   -2.0260   28.9050 H         1 <0>         0.0000
     17 H17        30.9400   -0.2190   29.8780 H         1 <0>         0.0000
     18 H18        31.1440   -4.6740   18.2660 H         1 <0>         0.0000
     19 H19        31.4950   -1.8150   18.5760 H         1 <0>         0.0000
     20 H20        30.9870   -3.4770   16.2180 H         1 <0>         0.0000
     21 H21        32.4050   -2.7270   16.5280 H         1 <0>         0.0000
     22 H22        32.3790   -4.3300   16.2160 H         1 <0>         0.0000
     23 H23        29.3420   -2.5060   17.8370 H         1 <0>         0.0000
     24 H24        29.2380   -3.5670   19.0740 H         1 <0>         0.0000
     25 H25        29.2110   -1.9620   19.3710 H         1 <0>         0.0000
     26 H26        34.2430   -2.9560   20.7700 H         1 <0>         0.0000
     27 H27        34.4580   -4.5690   20.9080 H         1 <0>         0.0000
     28 H28        33.2350   -4.5380   22.9630 H         1 <0>         0.0000
     29 H29        34.5600   -3.5870   23.0440 H         1 <0>         0.0000
     30 H30        36.7570    2.1520   28.7840 H         1 <0>         0.0000
     31 H31        24.4120   -1.7440   26.4070 H         1 <0>         0.0000
     32 C1         32.5980   -2.7670   26.6020 C.ar      1 <0>         0.0000
     33 C2         31.0490   -1.0880   25.8190 C.ar      1 <0>         0.0000
     34 C3         32.5280    1.3640   27.4550 C.ar      1 <0>         0.0000
     35 C4         33.3320    0.3420   29.5310 C.ar      1 <0>         0.0000
     36 C5         27.8770   -2.9010   27.8170 C.ar      1 <0>         0.0000
     37 C6         33.0380   -3.0360   25.3010 C.ar      1 <0>         0.0000
     38 C7         31.4720   -1.3810   24.4850 C.ar      1 <0>         0.0000
     39 C8         33.7900    1.9610   27.3250 C.ar      1 <0>         0.0000
     40 C9         34.6020    0.9470   29.4060 C.ar      1 <0>         0.0000
     41 C10        26.6200   -2.5960   27.2970 C.ar      1 <0>         0.0000
     42 C11        27.1760   -0.2260   27.4850 C.ar      1 <0>         0.0000
     43 C12        31.6000   -1.7960   26.8740 C.ar      1 <0>         0.0000
     44 C13        32.3210    0.5570   28.5810 C.ar      1 <0>         0.0000
     45 C14        28.7870   -1.9020   28.1250 C.ar      1 <0>         0.0000
     46 C15        34.8180    1.7460   28.2770 C.ar      1 <0>         0.0000
     47 C16        32.4280   -2.3410   24.2250 C.ar      1 <0>         0.0000
     48 C17        26.2510   -1.2290   27.1610 C.ar      1 <0>         0.0000
     49 C18        28.4710   -0.5330   27.9000 C.ar      1 <0>         0.0000
     50 C19        33.0510   -4.0280   18.8880 C.3       1 <0>         0.0000
     51 C20        31.6110   -2.9360   20.3690 C.3       1 <0>         0.0000
     52 C21        31.2290   -1.6020   28.3540 C.3       1 <0>         0.0000
     53 C22        31.0200   -0.1590   28.8830 C.3       1 <0>         0.0000
     54 C23        31.7120   -3.8610   18.1380 C.3       1 <0>         0.0000
     55 C24        31.1200   -2.6760   18.9190 C.3       1 <0>         0.0000
     56 C25        31.8860   -3.5740   16.6460 C.3       1 <0>         0.0000
     57 C26        29.5960   -2.6780   18.7890 C.3       1 <0>         0.0000
     58 C27        33.8330   -3.8100   21.0910 C.3       1 <0>         0.0000
     59 C28        33.6620   -3.7020   22.6190 C.3       1 <0>         0.0000
     60 N1         32.6000   -4.0420   20.3000 N.4       1 <0>         0.0000
     61 O1         29.9990   -2.3260   28.6030 O.3       1 <0>         0.0000
     62 O2         36.0360    2.3080   28.1080 O.3       1 <0>         0.0000
     63 O3         25.0100   -0.9830   26.6580 O.3       1 <0>         0.0000
     64 O4         32.8320   -2.5750   22.9510 O.3       1 <0>         0.0000
     65 S1         29.4850    0.5350   28.2710 S.3       1 <0>         0.0000
     66 H32        32.1788   -4.9177   20.5362 H         1 <0>         0.0000
@<TRIPOS>BOND
     1    1   32 1
     2    2   33 1
     3    3   34 1
     4    4   35 1
     5    5   36 1
     6    6   37 1
     7    7   38 1
     8    8   39 1
     9    9   40 1
    10   10   41 1
    11   11   42 1
    12   12   50 1
    13   13   50 1
    14   14   51 1
    15   15   51 1
    16   16   52 1
    17   17   53 1
    18   18   54 1
    19   19   55 1
    20   20   56 1
    21   21   56 1
    22   22   56 1
    23   23   57 1
    24   24   57 1
    25   25   57 1
    26   26   58 1
    27   27   58 1
    28   28   59 1
    29   29   59 1
    30   30   62 1
    31   31   63 1
    32   32   37 ar
    33   32   43 ar
    34   33   38 ar
    35   33   43 ar
    36   34   39 ar
    37   34   44 ar
    38   35   40 ar
    39   35   44 ar
    40   36   41 ar
    41   36   45 ar
    42   37   47 ar
    43   38   47 ar
    44   39   46 ar
    45   40   46 ar
    46   41   48 ar
    47   42   48 ar
    48   42   49 ar
    49   43   52 1
    50   44   53 1
    51   45   49 ar
    52   45   61 1
    53   46   62 1
    54   47   64 1
    55   48   63 1
    56   49   65 1
    57   50   54 1
    58   50   60 1
    59   51   55 1
    60   51   60 1
    61   52   53 1
    62   52   61 1
    63   53   65 1
    64   54   55 1
    65   54   56 1
    66   55   57 1
    67   58   59 1
    68   58   60 1
    69   59   64 1
    70   60   66 1
