@<TRIPOS>MOLECULE
****
   69    73     0     0     0
SMALL
NO_CHARGES

@<TRIPOS>ATOM
      1 H1         27.8540    1.9930   28.2260 H         1 <0>         0.0000
      2 H2         28.8090   -3.2030   26.8420 H         1 <0>         0.0000
      3 H3         30.2260    2.2370   28.5450 H         1 <0>         0.0000
      4 H4         32.3520    2.3170   27.2130 H         1 <0>         0.0000
      5 H5         32.5310   -1.3170   29.3280 H         1 <0>         0.0000
      6 H6         26.4280   -3.4010   26.5350 H         1 <0>         0.0000
      7 H7         32.8980   -3.8350   26.5360 H         1 <0>         0.0000
      8 H8         30.6210   -0.6030   25.1130 H         1 <0>         0.0000
      9 H9         33.9850   -3.9910   24.4010 H         1 <0>         0.0000
     10 H10        31.7080   -0.7590   22.9770 H         1 <0>         0.0000
     11 H11        34.7270    2.6160   27.5680 H         1 <0>         0.0000
     12 H12        34.8940   -1.0080   29.6580 H         1 <0>         0.0000
     13 H13        25.9180    0.6210   27.6320 H         1 <0>         0.0000
     14 H14        30.8330   -2.5090   16.9440 H         1 <0>         0.0000
     15 H15        31.6250   -1.5510   18.0040 H         1 <0>         0.0000
     16 H16        32.4110   -4.2290   17.2300 H         1 <0>         0.0000
     17 H17        33.2450   -2.8600   16.9190 H         1 <0>         0.0000
     18 H18        29.7650   -2.3970   19.1410 H         1 <0>         0.0000
     19 H19        30.1030   -3.9220   18.6630 H         1 <0>         0.0000
     20 H20        34.2250   -4.0250   18.7810 H         1 <0>         0.0000
     21 H21        33.6570   -2.5710   19.2620 H         1 <0>         0.0000
     22 H22        31.7040   -2.3650   20.5170 H         1 <0>         0.0000
     23 H23        30.8040   -3.6660   20.9210 H         1 <0>         0.0000
     24 H24        37.9630   -0.4780   27.5420 H         1 <0>         0.0000
     25 H25        38.9480    0.1700   28.6710 H         1 <0>         0.0000
     26 H26        37.9140   -1.0260   29.0790 H         1 <0>         0.0000
     27 H27        33.8090   -5.3570   20.8230 H         1 <0>         0.0000
     28 H28        32.6070   -4.8080   21.7820 H         1 <0>         0.0000
     29 H29        34.6870   -4.0140   22.5510 H         1 <0>         0.0000
     30 H30        34.9720   -3.3070   21.1070 H         1 <0>         0.0000
     31 H31        24.2650   -2.4070   26.5840 H         1 <0>         0.0000
     32 C1         28.4600    1.2130   28.0670 C.ar      1 <0>         0.0000
     33 C2         28.2180   -2.4130   27.0040 C.ar      1 <0>         0.0000
     34 C3         29.8570    1.3550   28.2530 C.ar      1 <0>         0.0000
     35 C4         32.8720    1.6290   27.7200 C.ar      1 <0>         0.0000
     36 C5         32.9800   -0.5030   28.9590 C.ar      1 <0>         0.0000
     37 C6         26.8220   -2.5290   26.8260 C.ar      1 <0>         0.0000
     38 C7         32.6480   -3.1980   25.8070 C.ar      1 <0>         0.0000
     39 C8         31.3180   -1.3050   24.9650 C.ar      1 <0>         0.0000
     40 C9         33.2880   -3.2900   24.5500 C.ar      1 <0>         0.0000
     41 C10        31.9560   -1.3950   23.7080 C.ar      1 <0>         0.0000
     42 C11        34.2670    1.8030   27.9250 C.ar      1 <0>         0.0000
     43 C12        34.3670   -0.3240   29.1540 C.ar      1 <0>         0.0000
     44 C13        26.5200   -0.1610   27.4720 C.ar      1 <0>         0.0000
     45 C14        27.9180   -0.0290   27.6560 C.ar      1 <0>         0.0000
     46 C15        28.7900   -1.1620   27.4180 C.ar      1 <0>         0.0000
     47 C16        32.2070    0.4660   28.2400 C.ar      1 <0>         0.0000
     48 C17        30.7510    0.2590   28.0310 C.ar      1 <0>         0.0000
     49 C18        31.6570   -2.2140   26.0460 C.ar      1 <0>         0.0000
     50 C19        32.9480   -2.3840   23.4780 C.ar      1 <0>         0.0000
     51 C20        25.9730   -1.4110   27.0580 C.ar      1 <0>         0.0000
     52 C21        30.2020   -1.0240   27.5980 C.ar      1 <0>         0.0000
     53 C22        35.0090    0.8240   28.6360 C.ar      1 <0>         0.0000
     54 C23        31.3680   -2.4930   17.7890 C.3       1 <0>         0.0000
     55 C24        32.6540   -3.3240   17.5790 C.3       1 <0>         0.0000
     56 C25        30.4990   -3.0460   18.9390 C.3       1 <0>         0.0000
     57 C26        33.4010   -3.4750   18.9190 C.3       1 <0>         0.0000
     58 C27        31.3630   -3.2510   20.2030 C.3       1 <0>         0.0000
     59 C28        38.0420   -0.2180   28.5040 C.3       1 <0>         0.0000
     60 C29        33.2780   -4.5520   21.0860 C.3       1 <0>         0.0000
     61 C30        34.2630   -3.5730   21.7600 C.3       1 <0>         0.0000
     62 N1         32.5200   -4.1440   19.9020 N.4       1 <0>         0.0000
     63 O1         36.9320    1.3850   30.3880 O.2       1 <0>         0.0000
     64 O2         37.1800    2.3840   28.3060 O.2       1 <0>         0.0000
     65 O3         24.6510   -1.5330   26.8790 O.3       1 <0>         0.0000
     66 O4         31.0320   -2.1570   27.3520 O.3       1 <0>         0.0000
     67 O5         33.5370   -2.4060   22.1890 O.3       1 <0>         0.0000
     68 S1         36.7580    1.0300   28.9080 S.o2      1 <0>         0.0000
     69 H32        32.1575   -4.9702   19.4708 H         1 <0>         0.0000
@<TRIPOS>BOND
     1    1   32 1
     2    2   33 1
     3    3   34 1
     4    4   35 1
     5    5   36 1
     6    6   37 1
     7    7   38 1
     8    8   39 1
     9    9   40 1
    10   10   41 1
    11   11   42 1
    12   12   43 1
    13   13   44 1
    14   14   54 1
    15   15   54 1
    16   16   55 1
    17   17   55 1
    18   18   56 1
    19   19   56 1
    20   20   57 1
    21   21   57 1
    22   22   58 1
    23   23   58 1
    24   24   59 1
    25   25   59 1
    26   26   59 1
    27   27   60 1
    28   28   60 1
    29   29   61 1
    30   30   61 1
    31   31   65 1
    32   32   34 ar
    33   32   45 ar
    34   33   37 ar
    35   33   46 ar
    36   34   48 ar
    37   35   42 ar
    38   35   47 ar
    39   36   43 ar
    40   36   47 ar
    41   37   51 ar
    42   38   40 ar
    43   38   49 ar
    44   39   41 ar
    45   39   49 ar
    46   40   50 ar
    47   41   50 ar
    48   42   53 ar
    49   43   53 ar
    50   44   45 ar
    51   44   51 ar
    52   45   46 ar
    53   46   52 ar
    54   47   48 1
    55   48   52 ar
    56   49   66 1
    57   50   67 1
    58   51   65 1
    59   52   66 1
    60   53   68 1
    61   54   55 1
    62   54   56 1
    63   55   57 1
    64   56   58 1
    65   57   62 1
    66   58   62 1
    67   59   68 1
    68   60   61 1
    69   60   62 1
    70   61   67 1
    71   63   68 2
    72   64   68 2
    73   62   69 1
