@<TRIPOS>MOLECULE
****
   79    83     0     0     0
SMALL
NO_CHARGES

@<TRIPOS>ATOM
      1 H1         39.5370    0.5410   30.5430 H         1 <0>         0.0000
      2 H2         37.4990    1.8010   30.5160 H         1 <0>         0.0000
      3 H3         39.7730   -1.3430   29.1100 H         1 <0>         0.0000
      4 H4         32.3920    0.3840   24.7340 H         1 <0>         0.0000
      5 H5         35.7670    1.2960   28.9060 H         1 <0>         0.0000
      6 H6         37.9960   -1.9570   27.5820 H         1 <0>         0.0000
      7 H7         27.9070    1.8260   27.9990 H         1 <0>         0.0000
      8 H8         29.4780   -1.7640   26.6080 H         1 <0>         0.0000
      9 H9         31.6260   -1.3630   23.2470 H         1 <0>         0.0000
     10 H10        25.6700    0.9770   27.7160 H         1 <0>         0.0000
     11 H11        27.2300   -2.6250   26.3320 H         1 <0>         0.0000
     12 H12        34.1360   -4.0820   25.1460 H         1 <0>         0.0000
     13 H13        30.4030   -2.2100   17.4170 H         1 <0>         0.0000
     14 H14        31.2630   -1.5130   18.6180 H         1 <0>         0.0000
     15 H15        32.0400   -3.9750   17.2930 H         1 <0>         0.0000
     16 H16        32.7330   -2.5270   16.9910 H         1 <0>         0.0000
     17 H17        29.5130   -2.9170   19.5370 H         1 <0>         0.0000
     18 H18        30.1650   -4.2040   18.7710 H         1 <0>         0.0000
     19 H19        34.0720   -3.7900   18.5280 H         1 <0>         0.0000
     20 H20        33.5270   -2.4230   19.2360 H         1 <0>         0.0000
     21 H21        31.5410   -2.6210   20.7680 H         1 <0>         0.0000
     22 H22        30.9240   -4.1080   21.0450 H         1 <0>         0.0000
     23 H23        31.5820    1.6950   31.3110 H         1 <0>         0.0000
     24 H24        32.5050    0.4070   30.9140 H         1 <0>         0.0000
     25 H25        33.1420    1.9100   30.8790 H         1 <0>         0.0000
     26 H26        35.2770    2.0910   26.6050 H         1 <0>         0.0000
     27 H27        34.0690    1.8520   25.5330 H         1 <0>         0.0000
     28 H28        30.9040    0.2050   27.0000 H         1 <0>         0.0000
     29 H29        30.2070    1.6670   27.2120 H         1 <0>         0.0000
     30 H30        30.7660   -0.2650   29.3110 H         1 <0>         0.0000
     31 H31        29.8580    1.0670   29.5720 H         1 <0>         0.0000
     32 H32        33.7500   -3.0230   21.2420 H         1 <0>         0.0000
     33 H33        34.4500   -4.4290   20.7970 H         1 <0>         0.0000
     34 H34        32.4180   -5.3880   22.0370 H         1 <0>         0.0000
     35 H35        33.8180   -5.0630   22.8120 H         1 <0>         0.0000
     36 H36        31.6830    2.4770   29.0720 H         1 <0>         0.0000
     37 H37        35.9330   -2.9410   26.8460 H         1 <0>         0.0000
     38 H38        33.1900    0.1010   28.2110 H         1 <0>         0.0000
     39 H39        24.8340   -2.2640   26.5690 H         1 <0>         0.0000
     40 C1         38.7990    0.2900   29.9170 C.ar      1 <0>         0.0000
     41 C2         37.6190    1.0380   29.8810 C.ar      1 <0>         0.0000
     42 C3         38.9350   -0.7980   29.0800 C.ar      1 <0>         0.0000
     43 C4         32.8250   -0.5170   24.7440 C.ar      1 <0>         0.0000
     44 C5         36.5890    0.7280   28.9540 C.ar      1 <0>         0.0000
     45 C6         37.8940   -1.1550   28.1710 C.ar      1 <0>         0.0000
     46 C7         27.7630    0.8960   27.6590 C.ar      1 <0>         0.0000
     47 C8         28.6870   -1.2010   26.8480 C.ar      1 <0>         0.0000
     48 C9         32.3640   -1.5490   23.8960 C.ar      1 <0>         0.0000
     49 C10        26.4620    0.4010   27.5120 C.ar      1 <0>         0.0000
     50 C11        27.3770   -1.7070   26.7010 C.ar      1 <0>         0.0000
     51 C12        33.8670   -3.1370   24.9630 C.ar      1 <0>         0.0000
     52 C13        33.9090   -0.7860   25.6050 C.ar      1 <0>         0.0000
     53 C14        36.7320   -0.3820   28.1050 C.ar      1 <0>         0.0000
     54 C15        28.8630    0.0960   27.3330 C.ar      1 <0>         0.0000
     55 C16        34.7220    0.1520   26.4200 C.2       1 <0>         0.0000
     56 C17        34.4100   -2.0670   25.7000 C.ar      1 <0>         0.0000
     57 C18        26.2930   -0.9200   27.0730 C.ar      1 <0>         0.0000
     58 C19        32.9250   -2.8240   23.9530 C.ar      1 <0>         0.0000
     59 C20        35.6620   -0.7660   27.1210 C.2       1 <0>         0.0000
     60 C21        33.4390    1.9920   27.4540 C.2       1 <0>         0.0000
     61 C22        31.0240   -2.3810   18.1820 C.3       1 <0>         0.0000
     62 C23        32.2890   -3.0900   17.6880 C.3       1 <0>         0.0000
     63 C24        30.3630   -3.3220   19.2000 C.3       1 <0>         0.0000
     64 C25        33.2600   -3.3100   18.8600 C.3       1 <0>         0.0000
     65 C26        31.3470   -3.5140   20.3610 C.3       1 <0>         0.0000
     66 C27        32.3170    1.3690   30.7160 C.3       1 <0>         0.0000
     67 C28        34.4260    1.5960   26.4310 C.3       1 <0>         0.0000
     68 C29        30.2260    0.7180   27.5270 C.3       1 <0>         0.0000
     69 C30        30.6040    0.6810   29.0300 C.3       1 <0>         0.0000
     70 C31        33.5890   -3.9920   21.0560 C.3       1 <0>         0.0000
     71 C32        33.0450   -4.6620   22.3200 C.3       1 <0>         0.0000
     72 C33        31.8910    1.5150   29.2500 C.3       1 <0>         0.0000
     73 N1         35.4250   -2.1180   26.5900 N.pl3     1 <0>         0.0000
     74 N2         32.9100    1.0600   28.2660 N.am      1 <0>         0.0000
     75 N3         32.6150   -4.1210   19.9290 N.4       1 <0>         0.0000
     76 O1         33.1100    3.1980   27.5470 O.2       1 <0>         0.0000
     77 O2         25.0170   -1.3320   26.8820 O.3       1 <0>         0.0000
     78 O3         32.3420   -3.8020   23.2300 O.3       1 <0>         0.0000
     79 H40        32.4981   -5.0743   19.6505 H         1 <0>         0.0000
@<TRIPOS>BOND
     1    1   40 1
     2    2   41 1
     3    3   42 1
     4    4   43 1
     5    5   44 1
     6    6   45 1
     7    7   46 1
     8    8   47 1
     9    9   48 1
    10   10   49 1
    11   11   50 1
    12   12   51 1
    13   13   61 1
    14   14   61 1
    15   15   62 1
    16   16   62 1
    17   17   63 1
    18   18   63 1
    19   19   64 1
    20   20   64 1
    21   21   65 1
    22   22   65 1
    23   23   66 1
    24   24   66 1
    25   25   66 1
    26   26   67 1
    27   27   67 1
    28   28   68 1
    29   29   68 1
    30   30   69 1
    31   31   69 1
    32   32   70 1
    33   33   70 1
    34   34   71 1
    35   35   71 1
    36   36   72 1
    37   37   73 1
    38   38   74 1
    39   39   77 1
    40   40   41 ar
    41   40   42 ar
    42   41   44 ar
    43   42   45 ar
    44   43   48 ar
    45   43   52 ar
    46   44   53 ar
    47   45   53 ar
    48   46   49 ar
    49   46   54 ar
    50   47   50 ar
    51   47   54 ar
    52   48   58 ar
    53   49   57 ar
    54   50   57 ar
    55   51   56 ar
    56   51   58 ar
    57   52   55 1
    58   52   56 ar
    59   53   59 1
    60   54   68 1
    61   55   59 2
    62   55   67 1
    63   56   73 1
    64   57   77 1
    65   58   78 1
    66   59   73 1
    67   60   67 1
    68   60   74 am
    69   60   76 2
    70   61   62 1
    71   61   63 1
    72   62   64 1
    73   63   65 1
    74   64   75 1
    75   65   75 1
    76   66   72 1
    77   68   69 1
    78   69   72 1
    79   70   71 1
    80   70   75 1
    81   71   78 1
    82   72   74 1
    83   75   79 1
