@<TRIPOS>MOLECULE
****
   63    67     0     0     0
SMALL
NO_CHARGES

@<TRIPOS>ATOM
      1 H1         36.4360    0.7230   28.0040 H         1 <0>         0.0000
      2 H2         35.3830   -0.2670   29.8720 H         1 <0>         0.0000
      3 H3         35.0590    1.4690   26.2080 H         1 <0>         0.0000
      4 H4         33.0250   -0.4850   30.0060 H         1 <0>         0.0000
      5 H5         32.7210    1.2010   26.2890 H         1 <0>         0.0000
      6 H6         30.1660   -0.2980   25.1110 H         1 <0>         0.0000
      7 H7         32.5850   -2.9320   27.1540 H         1 <0>         0.0000
      8 H8         29.0370   -3.3160   27.2520 H         1 <0>         0.0000
      9 H9         31.0720   -1.0130   23.0670 H         1 <0>         0.0000
     10 H10        33.5310   -3.6360   25.0890 H         1 <0>         0.0000
     11 H11        26.7100   -3.4610   26.8020 H         1 <0>         0.0000
     12 H12        26.3390    0.6140   27.4410 H         1 <0>         0.0000
     13 H13        28.3290    1.9670   27.4630 H         1 <0>         0.0000
     14 H14        28.7160    1.4510   28.9630 H         1 <0>         0.0000
     15 H15        30.6920    2.2170   27.9950 H         1 <0>         0.0000
     16 H16        30.4190    1.3540   26.6360 H         1 <0>         0.0000
     17 H17        32.1160   -4.4080   16.8430 H         1 <0>         0.0000
     18 H18        32.9560   -3.0410   17.1490 H         1 <0>         0.0000
     19 H19        30.8650   -2.3970   17.9540 H         1 <0>         0.0000
     20 H20        30.5040   -3.9080   18.4600 H         1 <0>         0.0000
     21 H21        33.1420   -5.5220   18.4970 H         1 <0>         0.0000
     22 H22        34.2330   -4.3070   18.4940 H         1 <0>         0.0000
     23 H23        32.5050   -2.1230   19.6400 H         1 <0>         0.0000
     24 H24        31.2790   -2.8440   20.4420 H         1 <0>         0.0000
     25 H25        30.8950   -1.9140   28.2920 H         1 <0>         0.0000
     26 H26        30.8780    0.1440   29.2080 H         1 <0>         0.0000
     27 H27        34.2540   -2.8900   20.6750 H         1 <0>         0.0000
     28 H28        34.6650   -4.4690   20.7290 H         1 <0>         0.0000
     29 H29        32.9500   -4.6100   22.5520 H         1 <0>         0.0000
     30 H30        34.4050   -3.9660   22.9180 H         1 <0>         0.0000
     31 H31        24.5940   -2.4160   26.5940 H         1 <0>         0.0000
     32 C1         35.4420    0.6200   28.0390 C.ar      1 <0>         0.0000
     33 C2         34.8240    0.0560   29.1090 C.ar      1 <0>         0.0000
     34 C3         34.6430    1.0410   27.0100 C.ar      1 <0>         0.0000
     35 C4         33.4360   -0.0900   29.1840 C.ar      1 <0>         0.0000
     36 C5         33.2730    0.8840   27.0610 C.ar      1 <0>         0.0000
     37 C6         30.8560   -1.0220   25.1000 C.ar      1 <0>         0.0000
     38 C7         32.2590   -2.5440   26.2920 C.ar      1 <0>         0.0000
     39 C8         28.4740   -2.4910   27.2900 C.ar      1 <0>         0.0000
     40 C9         31.4020   -1.4080   23.9250 C.ar      1 <0>         0.0000
     41 C10        32.8220   -2.9300   25.1000 C.ar      1 <0>         0.0000
     42 C11        27.1210   -2.5800   27.0350 C.ar      1 <0>         0.0000
     43 C12        26.9130   -0.2040   27.4050 C.ar      1 <0>         0.0000
     44 C13        31.2430   -1.6190   26.2880 C.ar      1 <0>         0.0000
     45 C14        32.6340    0.3000   28.1500 C.ar      1 <0>         0.0000
     46 C15        29.0710   -1.2620   27.6020 C.ar      1 <0>         0.0000
     47 C16        28.2720   -0.1070   27.6530 C.ar      1 <0>         0.0000
     48 C17        32.4100   -2.3430   23.9080 C.ar      1 <0>         0.0000
     49 C18        26.3400   -1.4480   27.1030 C.ar      1 <0>         0.0000
     50 C19        28.8310    1.2770   27.9850 C.3       1 <0>         0.0000
     51 C20        30.3180    1.3640   27.6310 C.3       1 <0>         0.0000
     52 C21        32.4280   -3.7850   17.5600 C.3       1 <0>         0.0000
     53 C22        31.2350   -3.2320   18.3620 C.3       1 <0>         0.0000
     54 C23        33.2670   -4.5360   18.6110 C.3       1 <0>         0.0000
     55 C24        31.9510   -2.9520   19.7090 C.3       1 <0>         0.0000
     56 C25        30.6130   -1.2140   27.6360 C.3       1 <0>         0.0000
     57 C26        31.1040    0.1650   28.2340 C.3       1 <0>         0.0000
     58 C27        33.9300   -3.8110   20.8910 C.3       1 <0>         0.0000
     59 C28        33.5770   -3.8530   22.3690 C.3       1 <0>         0.0000
     60 N1         32.8200   -4.1310   19.9780 N.4       1 <0>         0.0000
     61 O1         24.9990   -1.5350   26.8360 O.3       1 <0>         0.0000
     62 O2         32.9650   -2.6410   22.6680 O.3       1 <0>         0.0000
     63 H32        32.2662   -4.8644   20.3722 H         1 <0>         0.0000
@<TRIPOS>BOND
     1    1   32 1
     2    2   33 1
     3    3   34 1
     4    4   35 1
     5    5   36 1
     6    6   37 1
     7    7   38 1
     8    8   39 1
     9    9   40 1
    10   10   41 1
    11   11   42 1
    12   12   43 1
    13   13   50 1
    14   14   50 1
    15   15   51 1
    16   16   51 1
    17   17   52 1
    18   18   52 1
    19   19   53 1
    20   20   53 1
    21   21   54 1
    22   22   54 1
    23   23   55 1
    24   24   55 1
    25   25   56 1
    26   26   57 1
    27   27   58 1
    28   28   58 1
    29   29   59 1
    30   30   59 1
    31   31   61 1
    32   32   33 ar
    33   32   34 ar
    34   33   35 ar
    35   34   36 ar
    36   35   45 ar
    37   36   45 ar
    38   37   40 ar
    39   37   44 ar
    40   38   41 ar
    41   38   44 ar
    42   39   42 ar
    43   39   46 ar
    44   40   48 ar
    45   41   48 ar
    46   42   49 ar
    47   43   47 ar
    48   43   49 ar
    49   44   56 1
    50   45   57 1
    51   46   47 ar
    52   46   56 1
    53   47   50 1
    54   48   62 1
    55   49   61 1
    56   50   51 1
    57   51   57 1
    58   52   53 1
    59   52   54 1
    60   53   55 1
    61   54   60 1
    62   55   60 1
    63   56   57 1
    64   58   59 1
    65   58   60 1
    66   59   62 1
    67   60   63 1
