@<TRIPOS>MOLECULE
****
   65    69     0     0     0
SMALL
NO_CHARGES

@<TRIPOS>ATOM
      1 H1         10.8390   55.3420   60.3700 H         1 <0>         0.0000
      2 H2         14.4640   51.3490   60.5260 H         1 <0>         0.0000
      3 H3         13.0720   50.5820   56.6830 H         1 <0>         0.0000
      4 H4         14.9170   55.8590   60.5930 H         1 <0>         0.0000
      5 H5         12.2860   52.9490   62.1360 H         1 <0>         0.0000
      6 H6          8.4270   55.6770   60.6370 H         1 <0>         0.0000
      7 H7         16.5810   50.3200   59.9630 H         1 <0>         0.0000
      8 H8         15.1920   49.5480   56.0950 H         1 <0>         0.0000
      9 H9         15.4640   56.5160   62.8840 H         1 <0>         0.0000
     10 H10        12.8510   53.6190   64.3790 H         1 <0>         0.0000
     11 H11         7.8230   51.7450   59.2070 H         1 <0>         0.0000
     12 H12        12.1740   54.5770   69.5300 H         1 <0>         0.0000
     13 H13        11.6920   56.0000   68.8910 H         1 <0>         0.0000
     14 H14        13.1640   58.2140   69.9260 H         1 <0>         0.0000
     15 H15        14.2210   57.8030   71.1010 H         1 <0>         0.0000
     16 H16        14.1710   54.6350   68.4330 H         1 <0>         0.0000
     17 H17        13.0830   55.1180   67.3150 H         1 <0>         0.0000
     18 H18        15.2970   58.0690   68.9760 H         1 <0>         0.0000
     19 H19        15.5070   56.5730   69.5950 H         1 <0>         0.0000
     20 H20        13.5250   55.6120   71.0900 H         1 <0>         0.0000
     21 H21        12.0470   57.1320   72.2170 H         1 <0>         0.0000
     22 H22        11.1550   57.2630   70.8560 H         1 <0>         0.0000
     23 H23        11.2220   55.8400   71.6550 H         1 <0>         0.0000
     24 H24        15.7200   55.3790   67.1620 H         1 <0>         0.0000
     25 H25        16.1770   56.9460   67.2040 H         1 <0>         0.0000
     26 H26        14.8210   57.2820   65.2170 H         1 <0>         0.0000
     27 H27        16.1290   56.3300   64.9980 H         1 <0>         0.0000
     28 H28        18.0100   49.2050   58.2800 H         1 <0>         0.0000
     29 H29         6.2090   54.7650   60.3550 H         1 <0>         0.0000
     30 C1         10.2010   54.6090   60.1340 C.ar      1 <0>         0.0000
     31 C2         14.6140   50.9770   59.6100 C.ar      1 <0>         0.0000
     32 C3         13.8060   50.5260   57.3600 C.ar      1 <0>         0.0000
     33 C4         14.4950   55.3920   61.3700 C.ar      1 <0>         0.0000
     34 C5         12.9500   53.6820   62.2850 C.ar      1 <0>         0.0000
     35 C6          8.7920   54.8130   60.2910 C.ar      1 <0>         0.0000
     36 C7         15.8550   50.3780   59.2780 C.ar      1 <0>         0.0000
     37 C8         15.0450   49.9230   57.0100 C.ar      1 <0>         0.0000
     38 C9         14.8140   55.7760   62.7110 C.ar      1 <0>         0.0000
     39 C10        13.2770   54.0730   63.5960 C.ar      1 <0>         0.0000
     40 C11         8.4540   52.4840   59.4420 C.ar      1 <0>         0.0000
     41 C12        10.7080   53.3480   59.6360 C.ar      1 <0>         0.0000
     42 C13        13.6050   51.0450   58.6540 C.ar      1 <0>         0.0000
     43 C14        13.5620   54.3280   61.1600 C.ar      1 <0>         0.0000
     44 C15        12.1240   53.0060   59.4430 C.2       1 <0>         0.0000
     45 C16        16.0650   49.8660   57.9880 C.ar      1 <0>         0.0000
     46 C17        14.1970   55.0950   63.7940 C.ar      1 <0>         0.0000
     47 C18         7.9420   53.7470   59.9390 C.ar      1 <0>         0.0000
     48 C19         9.8470   52.3010   59.2910 C.ar      1 <0>         0.0000
     49 C20        12.2990   51.6840   58.9650 C.2       1 <0>         0.0000
     50 C21        13.2350   53.9520   59.7510 C.2       1 <0>         0.0000
     51 C22        12.4690   55.4960   69.2680 C.3       1 <0>         0.0000
     52 C23        13.7750   57.4960   70.2600 C.3       1 <0>         0.0000
     53 C24        13.5420   55.3660   68.1680 C.3       1 <0>         0.0000
     54 C25        14.8430   57.2060   69.1970 C.3       1 <0>         0.0000
     55 C26        12.9630   56.2400   70.5520 C.3       1 <0>         0.0000
     56 C27        11.7390   56.6550   71.3940 C.3       1 <0>         0.0000
     57 C28        15.4330   56.3180   66.9750 C.3       1 <0>         0.0000
     58 C29        15.2480   56.4120   65.4630 C.3       1 <0>         0.0000
     59 N1         14.3510   56.6080   67.9170 N.4       1 <0>         0.0000
     60 O1         13.8880   54.4290   58.8390 O.2       1 <0>         0.0000
     61 O2         17.2630   49.2760   57.6190 O.3       1 <0>         0.0000
     62 O3          6.5930   53.8990   60.0350 O.3       1 <0>         0.0000
     63 O4         14.4150   55.3460   65.1190 O.3       1 <0>         0.0000
     64 S1         10.7740   50.9350   58.7570 S.3       1 <0>         0.0000
     65 H30        13.7438   57.2770   67.4884 H         1 <0>         0.0000
@<TRIPOS>BOND
     1    1   30 1
     2    2   31 1
     3    3   32 1
     4    4   33 1
     5    5   34 1
     6    6   35 1
     7    7   36 1
     8    8   37 1
     9    9   38 1
    10   10   39 1
    11   11   40 1
    12   12   51 1
    13   13   51 1
    14   14   52 1
    15   15   52 1
    16   16   53 1
    17   17   53 1
    18   18   54 1
    19   19   54 1
    20   20   55 1
    21   21   56 1
    22   22   56 1
    23   23   56 1
    24   24   57 1
    25   25   57 1
    26   26   58 1
    27   27   58 1
    28   28   61 1
    29   29   62 1
    30   30   35 ar
    31   30   41 ar
    32   31   36 ar
    33   31   42 ar
    34   32   37 ar
    35   32   42 ar
    36   33   38 ar
    37   33   43 ar
    38   34   39 ar
    39   34   43 ar
    40   35   47 ar
    41   36   45 ar
    42   37   45 ar
    43   38   46 ar
    44   39   46 ar
    45   40   47 ar
    46   40   48 ar
    47   41   44 1
    48   41   48 ar
    49   42   49 1
    50   43   50 1
    51   44   49 2
    52   44   50 1
    53   45   61 1
    54   46   63 1
    55   47   62 1
    56   48   64 1
    57   49   64 1
    58   50   60 2
    59   51   53 1
    60   51   55 1
    61   52   54 1
    62   52   55 1
    63   53   59 1
    64   54   59 1
    65   55   56 1
    66   57   58 1
    67   57   59 1
    68   58   63 1
    69   59   65 1
