@<TRIPOS>MOLECULE
****
   45    48     0     0     0
SMALL
NO_CHARGES

@<TRIPOS>ATOM
      1 H1         18.4930  -17.0770   28.5710 H         1 <0>         0.0000
      2 H2         12.7750  -17.1190   24.2540 H         1 <0>         0.0000
      3 H3         16.4840  -16.1490   27.7200 H         1 <0>         0.0000
      4 H4         20.4420  -17.1100   27.1960 H         1 <0>         0.0000
      5 H5         10.6880  -16.1020   23.7020 H         1 <0>         0.0000
      6 H6         15.8500  -17.0570   20.5460 H         1 <0>         0.0000
      7 H7         16.6820  -20.5960   22.4760 H         1 <0>         0.0000
      8 H8         15.1970  -16.0770   22.6120 H         1 <0>         0.0000
      9 H9         16.0210  -19.6190   24.5440 H         1 <0>         0.0000
     10 H10        14.4710  -12.1870   25.2860 H         1 <0>         0.0000
     11 H11        12.2670  -12.3980   24.5880 H         1 <0>         0.0000
     12 H12        18.3310  -15.2830   24.1440 H         1 <0>         0.0000
     13 H13        17.7360  -13.3540   26.2210 H         1 <0>         0.0000
     14 H14        17.1280  -12.1570   25.2910 H         1 <0>         0.0000
     15 H15        16.6320  -12.3210   26.8390 H         1 <0>         0.0000
     16 H16        16.9980  -20.3860   20.0830 H         1 <0>         0.0000
     17 H17         9.3700  -14.0840   23.4950 H         1 <0>         0.0000
     18 H18        20.6350  -15.8750   23.8940 H         1 <0>         0.0000
     19 C1         18.4650  -16.7040   27.6440 C.ar      1 <0>         0.0000
     20 C2         12.6670  -16.1270   24.3260 C.ar      1 <0>         0.0000
     21 C3         17.3020  -16.1640   27.1460 C.ar      1 <0>         0.0000
     22 C4         19.5850  -16.7240   26.8540 C.ar      1 <0>         0.0000
     23 C5         11.4590  -15.5420   24.0060 C.ar      1 <0>         0.0000
     24 C6         15.8850  -17.5950   21.3890 C.ar      1 <0>         0.0000
     25 C7         16.3670  -19.6470   22.5060 C.ar      1 <0>         0.0000
     26 C8         15.5070  -17.0270   22.5850 C.ar      1 <0>         0.0000
     27 C9         15.9860  -19.0790   23.7030 C.ar      1 <0>         0.0000
     28 C10        14.6040  -13.1770   25.2360 C.ar      1 <0>         0.0000
     29 C11        12.3740  -13.3900   24.5200 C.ar      1 <0>         0.0000
     30 C12        18.3570  -15.6580   25.0710 C.ar      1 <0>         0.0000
     31 C13        13.7240  -15.3500   24.7440 C.ar      1 <0>         0.0000
     32 C14        13.5680  -13.9860   24.8350 C.ar      1 <0>         0.0000
     33 C15        17.2420  -15.6440   25.8740 C.ar      1 <0>         0.0000
     34 C16        15.9920  -15.0850   25.4780 C.ar      1 <0>         0.0000
     35 C17        15.8190  -13.7200   25.5680 C.ar      1 <0>         0.0000
     36 C18        16.3100  -18.8980   21.3540 C.ar      1 <0>         0.0000
     37 C19        15.5570  -17.7710   23.7460 C.ar      1 <0>         0.0000
     38 C20        11.3330  -14.1740   24.1120 C.ar      1 <0>         0.0000
     39 C21        19.5110  -16.2060   25.5850 C.ar      1 <0>         0.0000
     40 C22        14.9500  -15.8930   25.0660 C.ar      1 <0>         0.0000
     41 C23        16.9200  -12.8130   26.0170 C.3       1 <0>         0.0000
     42 O1         16.6840  -19.4380   20.1350 O.3       1 <0>         0.0000
     43 O2         10.1560  -13.5480   23.8030 O.3       1 <0>         0.0000
     44 O3         20.6450  -16.2420   24.8240 O.3       1 <0>         0.0000
     45 O4         15.1780  -17.2620   24.9870 O.3       1 <0>         0.0000
@<TRIPOS>BOND
     1    1   19 1
     2    2   20 1
     3    3   21 1
     4    4   22 1
     5    5   23 1
     6    6   24 1
     7    7   25 1
     8    8   26 1
     9    9   27 1
    10   10   28 1
    11   11   29 1
    12   12   30 1
    13   13   41 1
    14   14   41 1
    15   15   41 1
    16   16   42 1
    17   17   43 1
    18   18   44 1
    19   19   21 ar
    20   19   22 ar
    21   20   23 ar
    22   20   31 ar
    23   21   33 ar
    24   22   39 ar
    25   23   38 ar
    26   24   26 ar
    27   24   36 ar
    28   25   27 ar
    29   25   36 ar
    30   26   37 ar
    31   27   37 ar
    32   28   32 ar
    33   28   35 ar
    34   29   32 ar
    35   29   38 ar
    36   30   33 ar
    37   30   39 ar
    38   31   32 ar
    39   31   40 ar
    40   33   34 1
    41   34   35 ar
    42   34   40 ar
    43   35   41 1
    44   36   42 1
    45   37   45 1
    46   38   43 1
    47   39   44 1
    48   40   45 1
