@<TRIPOS>MOLECULE
****
   68    72     0     0     0
SMALL
NO_CHARGES

@<TRIPOS>ATOM
      1 H1          0.7150  -31.7840   25.7940 H         1 <0>         0.0000
      2 H2         -1.8560  -33.4380   28.6840 H         1 <0>         0.0000
      3 H3         -0.3750  -27.3280   26.6520 H         1 <0>         0.0000
      4 H4         -4.9340  -32.9770   25.9040 H         1 <0>         0.0000
      5 H5         -1.4790  -30.7320   24.9000 H         1 <0>         0.0000
      6 H6          2.0270  -33.9430   25.7690 H         1 <0>         0.0000
      7 H7         -0.6520  -35.4590   28.6260 H         1 <0>         0.0000
      8 H8         -2.0250  -25.5350   26.0440 H         1 <0>         0.0000
      9 H9         -5.2520  -33.5940   23.6520 H         1 <0>         0.0000
     10 H10        -1.8150  -31.3970   22.4960 H         1 <0>         0.0000
     11 H11        -5.0880  -28.2990   26.5540 H         1 <0>         0.0000
     12 H12        -3.3840  -31.2710   16.9390 H         1 <0>         0.0000
     13 H13        -4.1560  -29.9700   17.5550 H         1 <0>         0.0000
     14 H14        -3.2290  -32.1090   18.9750 H         1 <0>         0.0000
     15 H15        -4.0810  -30.8530   19.5770 H         1 <0>         0.0000
     16 H16        -6.6690  -32.9770   17.6570 H         1 <0>         0.0000
     17 H17        -5.1690  -33.5060   17.2860 H         1 <0>         0.0000
     18 H18        -3.3520  -32.1570   27.5550 H         1 <0>         0.0000
     19 H19        -6.1470  -30.8100   17.1610 H         1 <0>         0.0000
     20 H20         1.0390  -30.3260   27.7520 H         1 <0>         0.0000
     21 H21         0.9610  -29.0950   26.6820 H         1 <0>         0.0000
     22 H22         0.6580  -28.8230   28.2630 H         1 <0>         0.0000
     23 H23        -5.1420  -30.8410   14.9820 H         1 <0>         0.0000
     24 H24        -4.5890  -32.3530   15.2540 H         1 <0>         0.0000
     25 H25        -6.1940  -32.0830   15.1160 H         1 <0>         0.0000
     26 H26        -4.1080  -33.9680   19.3930 H         1 <0>         0.0000
     27 H27        -5.7090  -34.2790   19.4700 H         1 <0>         0.0000
     28 H28        -5.6640  -32.6970   21.4210 H         1 <0>         0.0000
     29 H29        -5.1490  -34.2290   21.6570 H         1 <0>         0.0000
     30 H30         1.1710  -36.7890   27.7550 H         1 <0>         0.0000
     31 H31        -4.2630  -24.8560   25.6710 H         1 <0>         0.0000
     32 C1          0.4530  -32.5370   26.3970 C.ar      1 <0>         0.0000
     33 C2         -1.0540  -33.5340   28.0940 C.ar      1 <0>         0.0000
     34 C3         -1.3560  -27.5230   26.6310 C.ar      1 <0>         0.0000
     35 C4         -4.2980  -32.6500   25.2050 C.ar      1 <0>         0.0000
     36 C5         -2.2520  -31.3150   24.6480 C.ar      1 <0>         0.0000
     37 C6          1.2310  -33.8350   26.3650 C.ar      1 <0>         0.0000
     38 C7         -0.3670  -34.6900   28.0540 C.ar      1 <0>         0.0000
     39 C8         -2.3330  -26.4600   26.2680 C.ar      1 <0>         0.0000
     40 C9         -4.4820  -33.0100   23.9090 C.ar      1 <0>         0.0000
     41 C10        -2.4520  -31.7170   23.1970 C.ar      1 <0>         0.0000
     42 C11        -4.1100  -28.0930   26.5830 C.ar      1 <0>         0.0000
     43 C12        -0.5950  -32.3930   27.2390 C.ar      1 <0>         0.0000
     44 C13        -1.8300  -28.7820   26.9380 C.ar      1 <0>         0.0000
     45 C14        -3.1210  -31.7440   25.6120 C.ar      1 <0>         0.0000
     46 C15        -3.1870  -29.0490   26.9390 C.ar      1 <0>         0.0000
     47 C16         0.8250  -34.8310   27.1550 C.ar      1 <0>         0.0000
     48 C17        -3.5070  -32.5180   22.8520 C.ar      1 <0>         0.0000
     49 C18        -3.6020  -26.7650   26.2490 C.ar      1 <0>         0.0000
     50 C19        -1.4420  -31.1210   27.2830 C.3       1 <0>         0.0000
     51 C20        -0.9370  -29.7790   27.2800 C.3       1 <0>         0.0000
     52 C21        -4.1510  -30.9690   17.5050 C.3       1 <0>         0.0000
     53 C22        -4.0650  -31.5690   18.8790 C.3       1 <0>         0.0000
     54 C23        -5.6950  -32.7500   17.6760 C.3       1 <0>         0.0000
     55 C24        -3.0020  -31.4220   26.9750 C.3       1 <0>         0.0000
     56 C25        -5.4180  -31.4660   16.9670 C.3       1 <0>         0.0000
     57 C26         0.5630  -29.4790   27.5150 C.3       1 <0>         0.0000
     58 C27        -5.3280  -31.7070   15.4460 C.3       1 <0>         0.0000
     59 C28        -4.9960  -33.6110   19.6820 C.3       1 <0>         0.0000
     60 C29        -4.9710  -33.3730   21.1710 C.3       1 <0>         0.0000
     61 N1         -5.2580  -32.4340   18.9940 N.4       1 <0>         0.0000
     62 O1         -3.6340  -30.2520   27.2270 O.3       1 <0>         0.0000
     63 O2          1.4860  -36.0510   27.1580 O.3       1 <0>         0.0000
     64 O3         -4.5590  -25.7830   25.9020 O.3       1 <0>         0.0000
     65 O4         -3.6830  -32.8890   21.4990 O.3       1 <0>         0.0000
     66 H32        -1.5757  -31.1556   28.3743 H         1 <0>         0.0000
     67 H33        -1.1599  -29.6581   28.3504 H         1 <0>         0.0000
     68 H34        -5.9764  -31.9215   19.4643 H         1 <0>         0.0000
@<TRIPOS>BOND
     1    1   32 1
     2    2   33 1
     3    3   34 1
     4    4   35 1
     5    5   36 1
     6    6   37 1
     7    7   38 1
     8    8   39 1
     9    9   40 1
    10   10   41 1
    11   11   42 1
    12   12   52 1
    13   13   52 1
    14   14   53 1
    15   15   53 1
    16   16   54 1
    17   17   54 1
    18   18   55 1
    19   19   56 1
    20   20   57 1
    21   21   57 1
    22   22   57 1
    23   23   58 1
    24   24   58 1
    25   25   58 1
    26   26   59 1
    27   27   59 1
    28   28   60 1
    29   29   60 1
    30   30   63 1
    31   31   64 1
    32   32   37 ar
    33   32   43 ar
    34   33   38 ar
    35   33   43 ar
    36   34   39 ar
    37   34   44 ar
    38   35   40 ar
    39   35   45 ar
    40   36   41 ar
    41   36   45 ar
    42   37   47 ar
    43   38   47 ar
    44   39   49 ar
    45   40   48 ar
    46   41   48 ar
    47   42   46 ar
    48   42   49 ar
    49   43   50 1
    50   44   46 ar
    51   44   51 1
    52   45   55 1
    53   46   62 1
    54   47   63 1
    55   48   65 1
    56   49   64 1
    57   50   51 1
    58   50   55 1
    59   51   57 1
    60   52   53 1
    61   52   56 1
    62   53   61 1
    63   54   56 1
    64   54   61 1
    65   55   62 1
    66   56   58 1
    67   59   60 1
    68   59   61 1
    69   60   65 1
    70   50   66 1
    71   51   67 1
    72   61   68 1
