@<TRIPOS>MOLECULE
****
   49    52     0     0     0
SMALL
NO_CHARGES

@<TRIPOS>ATOM
      1 H1        -41.6490    9.1160  -26.4840 H         1 <0>         0.0000
      2 H2        -36.8070    6.5860  -27.4760 H         1 <0>         0.0000
      3 H3        -41.3890    5.4820  -30.9080 H         1 <0>         0.0000
      4 H4        -38.7710    8.7160  -30.5380 H         1 <0>         0.0000
      5 H5        -41.9510   11.2880  -25.4830 H         1 <0>         0.0000
      6 H6        -41.2700    5.1130  -28.5340 H         1 <0>         0.0000
      7 H7        -38.6650    8.3510  -28.1710 H         1 <0>         0.0000
      8 H8        -35.7820    4.6500  -28.4420 H         1 <0>         0.0000
      9 H9        -36.9190    2.4660  -25.1140 H         1 <0>         0.0000
     10 H10       -38.3670   10.8830  -23.3810 H         1 <0>         0.0000
     11 H11       -40.0140    8.2620  -32.7590 H         1 <0>         0.0000
     12 H12       -40.3930    5.4290  -33.0580 H         1 <0>         0.0000
     13 H13       -36.9250    2.9450  -22.6020 H         1 <0>         0.0000
     14 H14       -38.4110    2.9870  -21.9250 H         1 <0>         0.0000
     15 H15       -38.1700    2.1660  -23.3170 H         1 <0>         0.0000
     16 H16       -41.1680   13.0860  -23.9890 H         1 <0>         0.0000
     17 C1        -40.9690    9.4830  -25.8490 C.ar      1 <0>         0.0000
     18 C2        -36.8360    5.7210  -26.9750 C.ar      1 <0>         0.0000
     19 C3        -40.8150    6.0710  -30.3390 C.ar      1 <0>         0.0000
     20 C4        -39.2850    7.9640  -30.1240 C.ar      1 <0>         0.0000
     21 C5        -41.1400   10.7490  -25.2560 C.ar      1 <0>         0.0000
     22 C6        -40.7620    5.8670  -28.9500 C.ar      1 <0>         0.0000
     23 C7        -39.2370    7.7610  -28.7410 C.ar      1 <0>         0.0000
     24 C8        -36.2230    4.5960  -27.5460 C.ar      1 <0>         0.0000
     25 C9        -36.9000    3.3420  -25.5970 C.ar      1 <0>         0.0000
     26 C10       -39.0450   10.5280  -24.0250 C.ar      1 <0>         0.0000
     27 C11       -39.8110    8.7480  -25.5210 C.ar      1 <0>         0.0000
     28 C12       -37.4950    5.6890  -25.7190 C.ar      1 <0>         0.0000
     29 C13       -40.0580    7.1080  -30.9340 C.ar      1 <0>         0.0000
     30 C14       -37.5380    4.4540  -24.9920 C.ar      1 <0>         0.0000
     31 C15       -39.9910    6.7280  -28.1470 C.ar      1 <0>         0.0000
     32 C16       -40.1940   11.2750  -24.3490 C.ar      1 <0>         0.0000
     33 C17       -39.3340    7.3740  -25.9420 C.2       1 <0>         0.0000
     34 C18       -36.2460    3.4010  -26.8300 C.ar      1 <0>         0.0000
     35 C19       -38.8760    9.2710  -24.6300 C.ar      1 <0>         0.0000
     36 C20       -38.1830    7.0130  -25.3480 C.2       1 <0>         0.0000
     37 C21       -40.1140    7.3220  -32.4330 C.2       1 <0>         0.0000
     38 C22       -40.2840    6.3760  -33.3610 C.2       1 <0>         0.0000
     39 C23       -40.3190    6.6560  -34.8090 C.2       1 <0>         0.0000
     40 C24       -37.9070    2.9740  -22.7890 C.3       1 <0>         0.0000
     41 C25       -38.2420    4.2590  -23.6050 C.3       1 <0>         0.0000
     42 O1        -41.0700    5.9780  -35.4940 O.co2     1 <0>         0.0000
     43 O2        -39.5360    7.6080  -35.3450 O.co2     1 <0>         0.0000
     44 O3        -40.3630   12.5360  -23.7660 O.3       1 <0>         0.0000
     45 O4        -39.9700    6.5220  -26.7670 O.3       1 <0>         0.0000
     46 F1        -35.6650    2.3140  -27.3190 F         1 <0>         0.0000
     47 F2        -39.5890    4.2090  -23.8090 F         1 <0>         0.0000
     48 F3        -37.9580    5.2870  -22.7640 F         1 <0>         0.0000
     49 S1        -37.4920    8.2500  -24.3100 S.3       1 <0>         0.0000
@<TRIPOS>BOND
     1    1   17 1
     2    2   18 1
     3    3   19 1
     4    4   20 1
     5    5   21 1
     6    6   22 1
     7    7   23 1
     8    8   24 1
     9    9   25 1
    10   10   26 1
    11   11   37 1
    12   12   38 1
    13   13   40 1
    14   14   40 1
    15   15   40 1
    16   16   44 1
    17   17   21 ar
    18   17   27 ar
    19   18   24 ar
    20   18   28 ar
    21   19   22 ar
    22   19   29 ar
    23   20   23 ar
    24   20   29 ar
    25   21   32 ar
    26   22   31 ar
    27   23   31 ar
    28   24   34 ar
    29   25   30 ar
    30   25   34 ar
    31   26   32 ar
    32   26   35 ar
    33   27   33 1
    34   27   35 ar
    35   28   30 ar
    36   28   36 1
    37   29   37 1
    38   30   41 1
    39   31   45 1
    40   32   44 1
    41   33   36 2
    42   33   45 1
    43   34   46 1
    44   35   49 1
    45   36   49 1
    46   37   38 2
    47   38   39 1
    48   39   42 1
    49   39   43 2
    50   40   41 1
    51   41   47 1
    52   41   48 1
